@<TRIPOS>MOLECULE
CHEMBL1393
   61    65     0     0     0
SMALL
USER_CHARGES

@<TRIPOS>ATOM
      1 C1         -0.0184    1.5028    0.0103 C.3       1 <0>        -0.1834
      2 C2          0.0021   -0.0041    0.0020 C.2       1 <0>         0.2952
      3 O1          1.0609   -0.5963   -0.0113 O.2       1 <0>        -0.4628
      4 S1         -1.4241   -0.8535    0.0111 S.3       1 <0>        -0.0865
      5 C3         -0.9005   -2.5903   -0.0033 C.3       1 <0>        -0.0601
      6 H1         -0.2231   -2.7735    0.8309 H         1 <0>         0.1085
      7 C4         -0.1848   -2.8979   -1.3203 C.3       1 <0>        -0.0972
      8 C5         -1.1754   -2.7526   -2.4610 C.2       1 <0>        -0.0183
      9 C6         -0.8008   -2.0328   -3.5185 C.2       1 <0>        -0.2315
     10 C7         -1.7119   -1.8719   -4.6568 C.2       1 <0>         0.3896
     11 O2         -1.5963   -0.9548   -5.4427 O.2       1 <0>        -0.4548
     12 C8         -2.8054   -2.9124   -4.7998 C.3       1 <0>        -0.1675
     13 C9         -3.4907   -3.0448   -3.4405 C.3       1 <0>        -0.1034
     14 C10        -2.5067   -3.4292   -2.3500 C.3       1 <0>        -0.0255
     15 C11        -3.1324   -3.1361   -0.9805 C.3       1 <0>        -0.0732
     16 H2         -3.3553   -2.0713   -0.9129 H         1 <0>         0.0859
     17 C12        -2.1284   -3.4962    0.1260 C.3       1 <0>        -0.0598
     18 H3         -1.8316   -4.5409    0.0333 H         1 <0>         0.1084
     19 C13        -2.8065   -3.2536    1.4620 C.3       1 <0>        -0.0867
     20 H4         -3.1622   -2.2252    1.5250 H         1 <0>         0.0929
     21 C14        -1.9786   -3.6091    2.7028 C.3       1 <0>        -0.1134
     22 C15        -3.0641   -3.8464    3.7912 C.3       1 <0>        -0.1439
     23 C16        -4.3520   -4.2185    3.0328 C.3       1 <0>         0.1193
     24 C17        -3.9981   -4.2470    1.5548 C.3       1 <0>        -0.0467
     25 C18        -5.0436   -3.7809    0.5608 C.3       1 <0>        -0.1049
     26 C19        -4.4313   -3.9253   -0.8461 C.3       1 <0>        -0.1212
     27 C20        -3.5271   -5.6532    1.1784 C.3       1 <0>        -0.1475
     28 C21        -5.4589   -3.1890    3.3175 C.3       1 <0>        -0.1503
     29 C22        -6.2810   -3.8924    4.4267 C.3       1 <0>        -0.1865
     30 C23        -5.5352   -5.1989    4.6547 C.2       1 <0>         0.4823
     31 O3         -5.5324   -5.8644    5.6632 O.2       1 <0>        -0.4395
     32 O4         -4.8739   -5.4684    3.5007 O.3       1 <0>        -0.3359
     33 C24        -2.2779   -4.9398   -2.4307 C.3       1 <0>        -0.1534
     34 H5          1.0042    1.8801    0.0026 H         1 <0>         0.0923
     35 H6         -0.5455    1.8639   -0.8728 H         1 <0>         0.0982
     36 H7         -0.5286    1.8543    0.9071 H         1 <0>         0.0977
     37 H8          0.6390   -2.1980   -1.4605 H         1 <0>         0.0924
     38 H9          0.1995   -3.9176   -1.2978 H         1 <0>         0.0984
     39 H10         0.1736   -1.5675   -3.5370 H         1 <0>         0.1313
     40 H11        -3.5282   -2.5897   -5.5493 H         1 <0>         0.0938
     41 H12        -2.3710   -3.8689   -5.0905 H         1 <0>         0.1002
     42 H13        -3.9536   -2.0925   -3.1816 H         1 <0>         0.0719
     43 H14        -4.2653   -3.8089   -3.5059 H         1 <0>         0.0853
     44 H15        -1.3988   -4.5162    2.5325 H         1 <0>         0.0749
     45 H16        -1.3274   -2.7808    2.9820 H         1 <0>         0.0735
     46 H17        -2.7654   -4.6639    4.4474 H         1 <0>         0.0789
     47 H18        -3.2196   -2.9365    4.3710 H         1 <0>         0.0819
     48 H19        -5.9363   -4.4010    0.6426 H         1 <0>         0.0727
     49 H20        -5.2965   -2.7376    0.7498 H         1 <0>         0.0726
     50 H21        -5.1455   -3.5623   -1.5851 H         1 <0>         0.0725
     51 H22        -4.2282   -4.9789   -1.0382 H         1 <0>         0.0787
     52 H23        -2.7398   -5.9681    1.8633 H         1 <0>         0.0589
     53 H24        -4.3652   -6.3470    1.2446 H         1 <0>         0.0640
     54 H25        -3.1408   -5.6463    0.1592 H         1 <0>         0.0689
     55 H26        -5.0346   -2.2537    3.6826 H         1 <0>         0.0947
     56 H27        -6.0691   -3.0196    2.4303 H         1 <0>         0.0996
     57 H28        -6.2891   -3.2921    5.3365 H         1 <0>         0.1070
     58 H29        -7.2978   -4.0862    4.0853 H         1 <0>         0.1151
     59 H30        -1.6274   -5.2529   -1.6141 H         1 <0>         0.0630
     60 H31        -3.2342   -5.4569   -2.3522 H         1 <0>         0.0727
     61 H32        -1.8090   -5.1859   -3.3835 H         1 <0>         0.0606
@<TRIPOS>BOND
     1    1    2 1
     2    1   34 1
     3    1   35 1
     4    1   36 1
     5    2    3 2
     6    2    4 1
     7    4    5 1
     8    5    6 1
     9    5   17 1
    10    5    7 1
    11    7    8 1
    12    7   37 1
    13    7   38 1
    14    8   14 1
    15    8    9 2
    16    9   10 1
    17    9   39 1
    18   10   11 2
    19   10   12 1
    20   12   13 1
    21   12   40 1
    22   12   41 1
    23   13   14 1
    24   13   42 1
    25   13   43 1
    26   14   15 1
    27   14   33 1
    28   15   16 1
    29   15   26 1
    30   15   17 1
    31   17   18 1
    32   17   19 1
    33   19   20 1
    34   19   24 1
    35   19   21 1
    36   21   22 1
    37   21   44 1
    38   21   45 1
    39   22   23 1
    40   22   46 1
    41   22   47 1
    42   23   32 1
    43   23   24 1
    44   23   28 1
    45   24   25 1
    46   24   27 1
    47   25   26 1
    48   25   48 1
    49   25   49 1
    50   26   50 1
    51   26   51 1
    52   27   52 1
    53   27   53 1
    54   27   54 1
    55   28   29 1
    56   28   55 1
    57   28   56 1
    58   29   30 1
    59   29   57 1
    60   29   58 1
    61   30   31 2
    62   30   32 1
    63   33   59 1
    64   33   60 1
    65   33   61 1
@<TRIPOS>MOLECULE
CHEMBL98988
   55    58     0     0     0
SMALL
USER_CHARGES

@<TRIPOS>ATOM
      1 C1          1.0488    0.9725    0.3863 C.3       1 <0>        -0.2078
      2 C2         -0.0480   -0.0104    0.0667 C.2       1 <0>         0.3543
      3 O1         -0.9220   -0.2229    0.8725 O.2       1 <0>        -0.4434
      4 C3         -0.0541   -0.7280   -1.2585 C.3       1 <0>        -0.1256
      5 C4         -1.5005   -1.1208   -1.6493 C.3       1 <0>        -0.1191
      6 C5         -1.4995   -2.6622   -1.8400 C.3       1 <0>        -0.1233
      7 C6         -0.0308   -2.9673   -2.1557 C.3       1 <0>        -0.0622
      8 C7          0.7071   -2.0461   -1.1493 C.3       1 <0>        -0.0778
      9 C8          2.1632   -2.0172   -1.5792 C.3       1 <0>        -0.1024
     10 C9          2.7130   -3.4353   -1.3773 C.3       1 <0>        -0.1309
     11 C10         1.9184   -4.4852   -2.1522 C.3       1 <0>        -0.0670
     12 C11         0.4151   -4.3956   -1.8873 C.3       1 <0>        -0.0933
     13 C12        -0.3827   -5.3338   -2.7870 C.3       1 <0>        -0.1054
     14 C13         0.3684   -6.6258   -3.0831 C.3       1 <0>        -0.0944
     15 C14         1.3579   -6.8880   -1.9740 C.2       1 <0>        -0.0114
     16 C15         1.2694   -7.9877   -1.2337 C.2       1 <0>        -0.2432
     17 C16         2.2156   -8.2446   -0.1496 C.2       1 <0>         0.3873
     18 O2          2.1300   -9.2642    0.5024 O.2       1 <0>        -0.4641
     19 C17         3.2981   -7.2403    0.1581 C.3       1 <0>        -0.1712
     20 C18         2.8132   -5.8463   -0.2539 C.3       1 <0>        -0.1095
     21 C19         2.4403   -5.8677   -1.7371 C.3       1 <0>        -0.0342
     22 C20         3.6707   -6.2229   -2.5743 C.3       1 <0>        -0.1403
     23 C21         0.5788   -2.6003    0.2462 C.2       1 <0>         0.4242
     24 O3         -0.2804   -3.4238    0.4968 O.2       1 <0>        -0.4756
     25 C22         1.4428   -2.1701    1.2473 C.2       1 <0>        -0.2670
     26 N1          1.3735   -2.6711    2.3904 N.1       1 <0>         0.1201
     27 N2          1.3126   -3.1119    3.3964 N.1       1 <0>        -0.0358
     28 H1          1.8739    0.4510    0.8715 H         1 <0>         0.0934
     29 H2          1.4027    1.4344   -0.5354 H         1 <0>         0.0897
     30 H3          0.6631    1.7429    1.0540 H         1 <0>         0.0872
     31 H4          0.3894   -0.0987   -2.0301 H         1 <0>         0.1116
     32 H5         -2.1916   -0.8428   -0.8537 H         1 <0>         0.0781
     33 H6         -1.7832   -0.6289   -2.5800 H         1 <0>         0.0718
     34 H7         -1.8094   -3.1644   -0.9236 H         1 <0>         0.0888
     35 H8         -2.1407   -2.9481   -2.6737 H         1 <0>         0.0673
     36 H9          0.2011   -2.6864   -3.1831 H         1 <0>         0.0860
     37 H10         2.2361   -1.7353   -2.6296 H         1 <0>         0.0836
     38 H11         2.7195   -1.3106   -0.9632 H         1 <0>         0.0749
     39 H12         3.7507   -3.4620   -1.7097 H         1 <0>         0.0745
     40 H13         2.6783   -3.6794   -0.3156 H         1 <0>         0.0721
     41 H14         2.0922   -4.3460   -3.2192 H         1 <0>         0.0781
     42 H15         0.2160   -4.6467   -0.8455 H         1 <0>         0.1001
     43 H16        -1.3253   -5.5772   -2.2968 H         1 <0>         0.0667
     44 H17        -0.5961   -4.8255   -3.7273 H         1 <0>         0.0671
     45 H18        -0.3390   -7.4528   -3.1433 H         1 <0>         0.0762
     46 H19         0.8995   -6.5296   -4.0300 H         1 <0>         0.0832
     47 H20         0.4859   -8.7029   -1.4360 H         1 <0>         0.1304
     48 H21         3.5131   -7.2511    1.2266 H         1 <0>         0.0934
     49 H22         4.1997   -7.4929   -0.4001 H         1 <0>         0.1046
     50 H23         1.9391   -5.5744    0.3379 H         1 <0>         0.0678
     51 H24         3.6084   -5.1195   -0.0880 H         1 <0>         0.0855
     52 H25         4.4489   -5.4774   -2.4109 H         1 <0>         0.0673
     53 H26         4.0403   -7.2048   -2.2785 H         1 <0>         0.0597
     54 H27         3.3994   -6.2396   -3.6298 H         1 <0>         0.0625
     55 H28         2.1735   -1.4032    1.0372 H         1 <0>         0.1975
@<TRIPOS>BOND
     1    1    2 1
     2    1   28 1
     3    1   29 1
     4    1   30 1
     5    2    3 2
     6    2    4 1
     7    4    8 1
     8    4    5 1
     9    4   31 1
    10    5    6 1
    11    5   32 1
    12    5   33 1
    13    6    7 1
    14    6   34 1
    15    6   35 1
    16    7   12 1
    17    7    8 1
    18    7   36 1
    19    8    9 1
    20    8   23 1
    21    9   10 1
    22    9   37 1
    23    9   38 1
    24   10   11 1
    25   10   39 1
    26   10   40 1
    27   11   21 1
    28   11   12 1
    29   11   41 1
    30   12   13 1
    31   12   42 1
    32   13   14 1
    33   13   43 1
    34   13   44 1
    35   14   15 1
    36   14   45 1
    37   14   46 1
    38   15   21 1
    39   15   16 2
    40   16   17 1
    41   16   47 1
    42   17   18 2
    43   17   19 1
    44   19   20 1
    45   19   48 1
    46   19   49 1
    47   20   21 1
    48   20   50 1
    49   20   51 1
    50   21   22 1
    51   22   52 1
    52   22   53 1
    53   22   54 1
    54   23   24 2
    55   23   25 1
    56   25   26 2
    57   25   55 1
    58   26   27 2
@<TRIPOS>MOLECULE
CHEMBL258191
   47    50     0     0     0
SMALL
USER_CHARGES

@<TRIPOS>ATOM
      1 C1         -0.3199    1.3098   -0.2803 C.3       1 <0>        -0.1077
      2 C2         -0.2769   -0.1934   -0.1825 C.ar      1 <0>        -0.1524
      3 C3         -0.3757   -0.9588   -1.3241 C.ar      1 <0>        -0.0526
      4 C4         -0.3360   -2.3493   -1.2314 C.ar      1 <0>        -0.0910
      5 C5         -0.1985   -2.9586    0.0151 C.ar      1 <0>         0.0104
      6 C6         -0.1004   -2.1873    1.1594 C.ar      1 <0>        -0.1366
      7 C7         -0.1319   -0.8036    1.0601 C.ar      1 <0>         0.2362
      8 N1         -0.0198   -0.0012    2.2004 N.pl3     1 <0>        -0.7350
      9 C8         -0.1659   -0.6220    3.5238 C.3       1 <0>         0.1711
     10 C9          0.6484   -1.9224    3.5241 C.3       1 <0>        -0.1194
     11 C10         0.0420   -2.8776    2.4905 C.3       1 <0>        -0.0404
     12 C11         0.9656   -4.0875    2.3356 C.3       1 <0>        -0.1586
     13 C12        -1.6399   -0.9337    3.7901 C.3       1 <0>        -0.1615
     14 C13         0.3677    0.3237    4.6016 C.3       1 <0>        -0.1538
     15 Cl1        -0.1507   -4.6900    0.1316 Cl        1 <0>        -0.0557
     16 C14        -0.4403   -3.1785   -2.4559 C.ar      1 <0>        -0.0513
     17 C15         0.5591   -3.1289   -3.4200 C.ar      1 <0>        -0.0839
     18 C16         0.4692   -3.9006   -4.5672 C.ar      1 <0>        -0.1475
     19 C17        -0.6123   -4.7292   -4.7701 C.ar      1 <0>        -0.0689
     20 C18        -1.6288   -4.7947   -3.8137 C.ar      1 <0>        -0.1110
     21 C19        -1.5446   -4.0206   -2.6441 C.ar      1 <0>         0.1213
     22 N2         -2.6659   -4.2917   -1.8950 N.pl3     1 <0>        -0.5890
     23 H1         -2.8715   -3.8922   -1.0353 H         1 <0>         0.4128
     24 C20        -3.4484   -5.2080   -2.5429 C.2       1 <0>         0.0504
     25 C21        -2.8825   -5.5461   -3.7125 C.2       1 <0>        -0.2053
     26 H2          0.6914    1.6944   -0.4123 H         1 <0>         0.0685
     27 H3         -0.9335    1.6010   -1.1329 H         1 <0>         0.0697
     28 H4         -0.7488    1.7212    0.6334 H         1 <0>         0.0618
     29 H5         -0.4839   -0.4831   -2.2876 H         1 <0>         0.1315
     30 H6          0.1519    0.9500    2.1187 H         1 <0>         0.4027
     31 H7          1.6849   -1.7043    3.2668 H         1 <0>         0.0728
     32 H8          0.6041   -2.3808    4.5121 H         1 <0>         0.0786
     33 H9         -0.9382   -3.2148    2.8276 H         1 <0>         0.0822
     34 H10         1.7101   -3.8802    1.5670 H         1 <0>         0.0591
     35 H11         1.4669   -4.2856    3.2830 H         1 <0>         0.0508
     36 H12         0.3777   -4.9587    2.0465 H         1 <0>         0.0732
     37 H13        -2.0099   -1.6191    3.0276 H         1 <0>         0.0613
     38 H14        -1.7422   -1.3940    4.7728 H         1 <0>         0.0662
     39 H15        -2.2178   -0.0100    3.7596 H         1 <0>         0.0584
     40 H16        -0.1951    1.2569    4.5772 H         1 <0>         0.0623
     41 H17         0.2569   -0.1419    5.5809 H         1 <0>         0.0743
     42 H18         1.4216    0.5300    4.4146 H         1 <0>         0.0634
     43 H19         1.4126   -2.4834   -3.2742 H         1 <0>         0.1238
     44 H20         1.2531   -3.8519   -5.3085 H         1 <0>         0.1234
     45 H21        -0.6746   -5.3271   -5.6673 H         1 <0>         0.1215
     46 H22        -4.3866   -5.5944   -2.1731 H         1 <0>         0.1685
     47 H23        -3.2712   -6.2480   -4.4353 H         1 <0>         0.1454
@<TRIPOS>BOND
     1    1    2 1
     2    1   26 1
     3    1   27 1
     4    1   28 1
     5    2    7 ar
     6    2    3 ar
     7    3    4 ar
     8    3   29 1
     9    4    5 ar
    10    4   16 1
    11    5    6 ar
    12    5   15 1
    13    6   11 1
    14    6    7 ar
    15    7    8 1
    16    8    9 1
    17    8   30 1
    18    9   10 1
    19    9   13 1
    20    9   14 1
    21   10   11 1
    22   10   31 1
    23   10   32 1
    24   11   12 1
    25   11   33 1
    26   12   34 1
    27   12   35 1
    28   12   36 1
    29   13   37 1
    30   13   38 1
    31   13   39 1
    32   14   40 1
    33   14   41 1
    34   14   42 1
    35   16   21 ar
    36   16   17 ar
    37   17   18 ar
    38   17   43 1
    39   18   19 ar
    40   18   44 1
    41   19   20 ar
    42   19   45 1
    43   20   25 1
    44   20   21 ar
    45   21   22 1
    46   22   23 1
    47   22   24 1
    48   24   25 2
    49   24   46 1
    50   25   47 1
@<TRIPOS>MOLECULE
CHEMBL258191__1
   47    50     0     0     0
SMALL
USER_CHARGES

@<TRIPOS>ATOM
      1 C1         -0.1479    1.5789    0.1579 C.3       1 <0>        -0.1044
      2 C2         -0.1211    0.0732    0.1005 C.ar      1 <0>        -0.1523
      3 C3         -0.1675   -0.5683   -1.1182 C.ar      1 <0>        -0.0528
      4 C4         -0.1422   -1.9612   -1.1692 C.ar      1 <0>        -0.0907
      5 C5         -0.0683   -2.6982    0.0120 C.ar      1 <0>         0.0104
      6 C6         -0.0210   -2.0512    1.2339 C.ar      1 <0>        -0.1360
      7 C7         -0.0437   -0.6644    1.2783 C.ar      1 <0>         0.2363
      8 N1         -0.0006    0.0135    2.5012 N.pl3     1 <0>        -0.7359
      9 C8          0.3773   -0.7277    3.7120 C.3       1 <0>         0.1724
     10 C9         -0.3796   -2.0623    3.7002 C.3       1 <0>        -0.1198
     11 C10         0.0637   -2.8773    2.4904 C.3       1 <0>        -0.0411
     12 C11        -0.8281   -4.1119    2.3441 C.3       1 <0>        -0.1560
     13 C12        -0.0106    0.0770    4.9542 C.3       1 <0>        -0.1536
     14 C13         1.8851   -0.9871    3.7113 C.3       1 <0>        -0.1619
     15 Cl1        -0.0362   -4.4328   -0.0506 Cl        1 <0>        -0.0557
     16 C14        -0.1943   -2.6575   -2.4770 C.ar      1 <0>        -0.0515
     17 C15         0.8501   -2.5202   -3.3833 C.ar      1 <0>        -0.0839
     18 C16         0.8091   -3.1676   -4.6076 C.ar      1 <0>        -0.1475
     19 C17        -0.2674   -3.9574   -4.9457 C.ar      1 <0>        -0.0688
     20 C18        -1.3286   -4.1096   -4.0496 C.ar      1 <0>        -0.1109
     21 C19        -1.2944   -3.4621   -2.8031 C.ar      1 <0>         0.1215
     22 N2         -2.4519   -3.7959   -2.1391 N.pl3     1 <0>        -0.5889
     23 H1         -2.6951   -3.4854   -1.2529 H         1 <0>         0.4128
     24 C20        -3.2093   -4.6305   -2.9146 C.2       1 <0>         0.0505
     25 C21        -2.5911   -4.8522   -4.0855 C.2       1 <0>        -0.2053
     26 H2          0.8716    1.9623    0.1172 H         1 <0>         0.0698
     27 H3         -0.7153    1.9647   -0.6890 H         1 <0>         0.0692
     28 H4         -0.6195    1.8987    1.0872 H         1 <0>         0.0587
     29 H5         -0.2236    0.0063   -2.0310 H         1 <0>         0.1317
     30 H6         -0.2163    0.9580    2.5489 H         1 <0>         0.4019
     31 H7         -0.1615   -2.6139    4.6147 H         1 <0>         0.0792
     32 H8         -1.4510   -1.8739    3.6317 H         1 <0>         0.0703
     33 H9          1.0951   -3.1953    2.6431 H         1 <0>         0.0818
     34 H10        -0.2591   -4.9184    1.8815 H         1 <0>         0.0748
     35 H11        -1.1737   -4.4291    3.3280 H         1 <0>         0.0511
     36 H12        -1.6867   -3.8678    1.7186 H         1 <0>         0.0552
     37 H13        -1.0874    0.2457    4.9562 H         1 <0>         0.0628
     38 H14         0.2720   -0.4775    5.8491 H         1 <0>         0.0744
     39 H15         0.5075    1.0359    4.9423 H         1 <0>         0.0627
     40 H16         2.4174   -0.0361    3.6901 H         1 <0>         0.0589
     41 H17         2.1596   -1.5370    4.6115 H         1 <0>         0.0662
     42 H18         2.1526   -1.5729    2.8320 H         1 <0>         0.0622
     43 H19         1.7003   -1.9037   -3.1315 H         1 <0>         0.1239
     44 H20         1.6276   -3.0516   -5.3026 H         1 <0>         0.1235
     45 H21        -0.2915   -4.4582   -5.9023 H         1 <0>         0.1215
     46 H22        -4.1668   -5.0419   -2.6310 H         1 <0>         0.1685
     47 H23        -2.9502   -5.4706   -4.8949 H         1 <0>         0.1454
@<TRIPOS>BOND
     1    1    2 1
     2    1   26 1
     3    1   27 1
     4    1   28 1
     5    2    7 ar
     6    2    3 ar
     7    3    4 ar
     8    3   29 1
     9    4    5 ar
    10    4   16 1
    11    5    6 ar
    12    5   15 1
    13    6   11 1
    14    6    7 ar
    15    7    8 1
    16    8    9 1
    17    8   30 1
    18    9   10 1
    19    9   13 1
    20    9   14 1
    21   10   11 1
    22   10   31 1
    23   10   32 1
    24   11   12 1
    25   11   33 1
    26   12   34 1
    27   12   35 1
    28   12   36 1
    29   13   37 1
    30   13   38 1
    31   13   39 1
    32   14   40 1
    33   14   41 1
    34   14   42 1
    35   16   21 ar
    36   16   17 ar
    37   17   18 ar
    38   17   43 1
    39   18   19 ar
    40   18   44 1
    41   19   20 ar
    42   19   45 1
    43   20   25 1
    44   20   21 ar
    45   21   22 1
    46   22   23 1
    47   22   24 1
    48   24   25 2
    49   24   46 1
    50   25   47 1
@<TRIPOS>MOLECULE
CHEMBL373497
   55    58     0     0     0
SMALL
USER_CHARGES

@<TRIPOS>ATOM
      1 C1          0.8190   -0.1991    0.9676 C.3       1 <0>        -0.1552
      2 C2         -0.2014   -0.4401   -0.1467 C.3       1 <0>        -0.0171
      3 C3          0.1592   -1.7222   -0.8999 C.3       1 <0>        -0.1354
      4 C4         -1.5978   -0.5821    0.4624 C.3       1 <0>        -0.1512
      5 C5         -1.7228    0.3451    1.6730 C.3       1 <0>         0.0784
      6 C6         -3.0740    0.1163    2.3533 C.3       1 <0>         0.0628
      7 N1         -3.2437    1.0842    3.4398 N.pl3     1 <0>        -0.4992
      8 C7         -2.6746    0.8329    4.6435 C.2       1 <0>         0.1844
      9 C8         -2.7875    1.6773    5.6897 C.2       1 <0>        -0.3121
     10 C9         -3.5222    2.8787    5.5558 C.2       1 <0>         0.4175
     11 O1         -3.6361    3.6555    6.4897 O.2       1 <0>        -0.4974
     12 C10        -4.1449    3.1609    4.2505 C.ar      1 <0>        -0.1966
     13 C11        -3.9730    2.2295    3.2112 C.ar      1 <0>         0.2068
     14 C12        -4.5494    2.4801    1.9695 C.ar      1 <0>        -0.1909
     15 C13        -5.2737    3.6360    1.7739 C.ar      1 <0>        -0.0503
     16 C14        -5.4348    4.5538    2.8022 C.ar      1 <0>        -0.1613
     17 C15        -4.8865    4.3216    4.0331 C.ar      1 <0>        -0.0280
     18 C16        -1.6235    1.8009    1.2128 C.3       1 <0>         0.4641
     19 F1         -2.5960    2.0493    0.2382 F         1 <0>        -0.1683
     20 F2         -1.8301    2.6504    2.3050 F         1 <0>        -0.1675
     21 F3         -0.3535    2.0342    0.6743 F         1 <0>        -0.1475
     22 O2         -0.6702    0.0652    2.5981 O.3       1 <0>        -0.5190
     23 C17        -0.1863    0.7250   -1.1023 C.ar      1 <0>        -0.0766
     24 C18        -1.3569    1.1319   -1.7087 C.ar      1 <0>        -0.1081
     25 C19        -1.3542    2.1995   -2.5870 C.ar      1 <0>        -0.1366
     26 C20        -0.1696    2.8602   -2.8617 C.ar      1 <0>        -0.0793
     27 C21         1.0003    2.4540   -2.2599 C.ar      1 <0>        -0.1699
     28 C22         1.0080    1.3907   -1.3657 C.ar      1 <0>         0.1182
     29 O3          2.2563    1.1751   -0.8671 O.3       1 <0>        -0.2923
     30 C23         3.2243    1.7973   -1.7290 C.3       1 <0>         0.0455
     31 C24         2.4270    2.9573   -2.3641 C.3       1 <0>        -0.1114
     32 H1          1.8218   -0.1686    0.5415 H         1 <0>         0.0620
     33 H2          0.6037    0.7500    1.4583 H         1 <0>         0.0970
     34 H3          0.7584   -1.0071    1.6967 H         1 <0>         0.0527
     35 H4          0.0624   -2.5766   -0.2300 H         1 <0>         0.0599
     36 H5         -0.5144   -1.8471   -1.7477 H         1 <0>         0.0560
     37 H6          1.1863   -1.6562   -1.2586 H         1 <0>         0.0612
     38 H7         -2.3477   -0.3120   -0.2811 H         1 <0>         0.0978
     39 H8         -1.7536   -1.6139    0.7774 H         1 <0>         0.0986
     40 H9         -3.8741    0.2445    1.6242 H         1 <0>         0.1180
     41 H10        -3.1101   -0.8949    2.7585 H         1 <0>         0.1193
     42 H11        -2.1092   -0.0784    4.7704 H         1 <0>         0.1586
     43 H12        -2.3164    1.4354    6.6310 H         1 <0>         0.1501
     44 H13        -4.4293    1.7721    1.1629 H         1 <0>         0.1349
     45 H14        -5.7203    3.8298    0.8098 H         1 <0>         0.1313
     46 H15        -6.0054    5.4548    2.6313 H         1 <0>         0.1302
     47 H16        -5.0164    5.0397    4.8293 H         1 <0>         0.1378
     48 H17        -0.6714   -0.8422    2.9323 H         1 <0>         0.3891
     49 H18        -2.2802    0.6134   -1.4964 H         1 <0>         0.1315
     50 H19        -2.2733    2.5166   -3.0574 H         1 <0>         0.1261
     51 H20        -0.1629    3.6943   -3.5477 H         1 <0>         0.1220
     52 H21         4.0694    2.1735   -1.1524 H         1 <0>         0.1057
     53 H22         3.5595    1.1020   -2.4986 H         1 <0>         0.0745
     54 H23         2.7107    3.1110   -3.4052 H         1 <0>         0.0908
     55 H24         2.5606    3.8719   -1.7863 H         1 <0>         0.0887
@<TRIPOS>BOND
     1    1    2 1
     2    1   32 1
     3    1   33 1
     4    1   34 1
     5    2    3 1
     6    2    4 1
     7    2   23 1
     8    3   35 1
     9    3   36 1
    10    3   37 1
    11    4    5 1
    12    4   38 1
    13    4   39 1
    14    5    6 1
    15    5   18 1
    16    5   22 1
    17    6    7 1
    18    6   40 1
    19    6   41 1
    20    7   13 1
    21    7    8 1
    22    8    9 2
    23    8   42 1
    24    9   10 1
    25    9   43 1
    26   10   11 2
    27   10   12 1
    28   12   17 ar
    29   12   13 ar
    30   13   14 ar
    31   14   15 ar
    32   14   44 1
    33   15   16 ar
    34   15   45 1
    35   16   17 ar
    36   16   46 1
    37   17   47 1
    38   18   19 1
    39   18   20 1
    40   18   21 1
    41   22   48 1
    42   23   28 ar
    43   23   24 ar
    44   24   25 ar
    45   24   49 1
    46   25   26 ar
    47   25   50 1
    48   26   27 ar
    49   26   51 1
    50   27   31 1
    51   27   28 ar
    52   28   29 1
    53   29   30 1
    54   30   31 1
    55   30   52 1
    56   30   53 1
    57   31   54 1
    58   31   55 1
@<TRIPOS>MOLECULE
CHEMBL373497__1
   55    58     0     0     0
SMALL
USER_CHARGES

@<TRIPOS>ATOM
      1 C1          0.1730    0.5198   -1.5691 C.3       1 <0>        -0.1374
      2 C2         -0.0920    0.6172   -0.0654 C.3       1 <0>        -0.0158
      3 C3         -0.1049    2.0879    0.3560 C.3       1 <0>        -0.1563
      4 C4         -1.4467   -0.0173    0.2558 C.3       1 <0>        -0.1545
      5 C5         -2.0437    0.6545    1.4941 C.3       1 <0>         0.0782
      6 C6         -3.4421    0.0914    1.7555 C.3       1 <0>         0.0624
      7 N1         -4.0137    0.7346    2.9412 N.pl3     1 <0>        -0.4985
      8 C7         -3.7991    0.1834    4.1602 C.2       1 <0>         0.1794
      9 C8         -4.2929    0.7192    5.2957 C.2       1 <0>        -0.3110
     10 C9         -5.0685    1.9010    5.2437 C.2       1 <0>         0.4180
     11 O1         -5.5240    2.4012    6.2590 O.2       1 <0>        -0.4960
     12 C10        -5.3075    2.5081    3.9226 C.ar      1 <0>        -0.1963
     13 C11        -4.7511    1.8876    2.7899 C.ar      1 <0>         0.2083
     14 C12        -4.9615    2.4480    1.5337 C.ar      1 <0>        -0.1787
     15 C13        -5.7048    3.6025    1.4169 C.ar      1 <0>        -0.0530
     16 C14        -6.2464    4.2130    2.5393 C.ar      1 <0>        -0.1601
     17 C15        -6.0613    3.6726    3.7817 C.ar      1 <0>        -0.0263
     18 C16        -1.1489    0.3801    2.7045 C.3       1 <0>         0.4607
     19 F1          0.1463    0.8381    2.4403 F         1 <0>        -0.1418
     20 F2         -1.6602    1.0469    3.8230 F         1 <0>        -0.1651
     21 F3         -1.1147   -0.9955    2.9568 F         1 <0>        -0.1718
     22 O2         -2.1309    2.0640    1.2759 O.3       1 <0>        -0.5142
     23 C17         0.9940   -0.1107    0.6842 C.ar      1 <0>        -0.0638
     24 C18         0.6959   -1.2672    1.3750 C.ar      1 <0>        -0.1291
     25 C19         1.6845   -1.9427    2.0661 C.ar      1 <0>        -0.1334
     26 C20         2.9788   -1.4529    2.0676 C.ar      1 <0>        -0.0826
     27 C21         3.2780   -0.2973    1.3812 C.ar      1 <0>        -0.1655
     28 C22         2.2958    0.3833    0.6725 C.ar      1 <0>         0.1070
     29 O3          2.8089    1.4778    0.0464 O.3       1 <0>        -0.2979
     30 C23         4.0617    1.8293    0.6580 C.3       1 <0>         0.0500
     31 C24         4.5695    0.4783    1.2072 C.3       1 <0>        -0.1120
     32 H1          1.0950    1.0488   -1.8106 H         1 <0>         0.0671
     33 H2          0.2700   -0.5279   -1.8539 H         1 <0>         0.0549
     34 H3         -0.6571    0.9691   -2.1142 H         1 <0>         0.0589
     35 H4         -0.9139    2.6063   -0.1586 H         1 <0>         0.0574
     36 H5         -0.2570    2.1559    1.4332 H         1 <0>         0.0944
     37 H6          0.8471    2.5494    0.0937 H         1 <0>         0.0542
     38 H7         -2.1204    0.1165   -0.5905 H         1 <0>         0.0996
     39 H8         -1.3128   -1.0817    0.4489 H         1 <0>         0.1003
     40 H9         -4.0795    0.2869    0.8932 H         1 <0>         0.1220
     41 H10        -3.3756   -0.9838    1.9219 H         1 <0>         0.1169
     42 H11        -3.2104   -0.7197    4.2253 H         1 <0>         0.1548
     43 H12        -4.0960    0.2448    6.2457 H         1 <0>         0.1505
     44 H13        -4.5438    1.9805    0.6543 H         1 <0>         0.1258
     45 H14        -5.8673    4.0370    0.4416 H         1 <0>         0.1320
     46 H15        -6.8261    5.1176    2.4297 H         1 <0>         0.1302
     47 H16        -6.4863    4.1524    4.6510 H         1 <0>         0.1379
     48 H17        -2.6838    2.3119    0.5223 H         1 <0>         0.3875
     49 H18        -0.3153   -1.6467    1.3762 H         1 <0>         0.1421
     50 H19         1.4475   -2.8492    2.6032 H         1 <0>         0.1262
     51 H20         3.7541   -1.9771    2.6066 H         1 <0>         0.1223
     52 H21         4.7521    2.2348   -0.0815 H         1 <0>         0.1062
     53 H22         3.9085    2.5362    1.4734 H         1 <0>         0.0751
     54 H23         5.0798    0.6042    2.1621 H         1 <0>         0.0913
     55 H24         5.2205   -0.0074    0.4803 H         1 <0>         0.0893
@<TRIPOS>BOND
     1    1    2 1
     2    1   32 1
     3    1   33 1
     4    1   34 1
     5    2    3 1
     6    2    4 1
     7    2   23 1
     8    3   35 1
     9    3   36 1
    10    3   37 1
    11    4    5 1
    12    4   38 1
    13    4   39 1
    14    5    6 1
    15    5   18 1
    16    5   22 1
    17    6    7 1
    18    6   40 1
    19    6   41 1
    20    7   13 1
    21    7    8 1
    22    8    9 2
    23    8   42 1
    24    9   10 1
    25    9   43 1
    26   10   11 2
    27   10   12 1
    28   12   17 ar
    29   12   13 ar
    30   13   14 ar
    31   14   15 ar
    32   14   44 1
    33   15   16 ar
    34   15   45 1
    35   16   17 ar
    36   16   46 1
    37   17   47 1
    38   18   19 1
    39   18   20 1
    40   18   21 1
    41   22   48 1
    42   23   28 ar
    43   23   24 ar
    44   24   25 ar
    45   24   49 1
    46   25   26 ar
    47   25   50 1
    48   26   27 ar
    49   26   51 1
    50   27   31 1
    51   27   28 ar
    52   28   29 1
    53   29   30 1
    54   30   31 1
    55   30   52 1
    56   30   53 1
    57   31   54 1
    58   31   55 1
@<TRIPOS>MOLECULE
CHEMBL220023
   52    53     0     0     0
SMALL
USER_CHARGES

@<TRIPOS>ATOM
      1 C1         -0.8647    0.0718    3.2609 C.3       1 <0>        -0.1007
      2 C2         -0.6089   -1.2707    2.6257 C.2       1 <0>         0.0404
      3 C3         -0.6433   -1.5416    1.3070 C.2       1 <0>         0.0284
      4 N1         -0.3534   -2.8722    1.1684 N.pl3     1 <0>        -0.4084
      5 C4         -0.1518   -3.3683    2.4081 C.cat     1 <0>         0.3260
      6 N2         -0.3013   -2.4037    3.2743 N.pl3     1 <0>        -0.4737
      7 C5          0.1942   -4.7978    2.7365 C.3       1 <0>        -0.1127
      8 C6         -0.2763   -3.6186   -0.0898 C.3       1 <0>         0.0595
      9 C7         -1.6324   -4.2630   -0.3845 C.3       1 <0>         0.0797
     10 C8         -1.5343   -5.0947   -1.6649 C.3       1 <0>        -0.1556
     11 C9         -2.8410   -5.8620   -1.8759 C.3       1 <0>        -0.0108
     12 C10        -2.5581   -7.1453   -2.6595 C.3       1 <0>        -0.1389
     13 C11        -3.4488   -6.2174   -0.5176 C.3       1 <0>        -0.1504
     14 C12        -3.8082   -5.0038   -2.6499 C.ar      1 <0>        -0.0539
     15 C13        -3.3385   -3.9659   -3.4318 C.ar      1 <0>        -0.1550
     16 C14        -4.2266   -3.1776   -4.1433 C.ar      1 <0>         0.0781
     17 C15        -5.5867   -3.4277   -4.0722 C.ar      1 <0>        -0.1229
     18 C16        -6.0590   -4.4646   -3.2913 C.ar      1 <0>        -0.1661
     19 C17        -5.1697   -5.2589   -2.5823 C.ar      1 <0>         0.1184
     20 O1         -5.6328   -6.2833   -1.8179 O.3       1 <0>        -0.2986
     21 C18        -7.0469   -6.4881   -1.7952 C.3       1 <0>         0.0151
     22 F1         -3.7659   -2.1632   -4.9074 F         1 <0>        -0.1375
     23 C19        -2.6877   -3.1701   -0.5657 C.3       1 <0>         0.4590
     24 F2         -2.2760   -2.2861   -1.5688 F         1 <0>        -0.1665
     25 F3         -3.9058   -3.7539   -0.9298 F         1 <0>        -0.1326
     26 F4         -2.8462   -2.4711    0.6357 F         1 <0>        -0.1788
     27 O2         -2.0048   -5.1087    0.7055 O.3       1 <0>        -0.5158
     28 H1          0.0730    0.6223    3.3372 H         1 <0>         0.1009
     29 H2         -1.5682    0.6355    2.6482 H         1 <0>         0.1064
     30 H3         -1.2839   -0.0715    4.2569 H         1 <0>         0.0913
     31 H4         -0.8587   -0.8434    0.5117 H         1 <0>         0.2192
     32 H5          1.2741   -4.8935    2.8497 H         1 <0>         0.1238
     33 H6         -0.2955   -5.0857    3.6668 H         1 <0>         0.1233
     34 H7         -0.1457   -5.4483    1.9307 H         1 <0>         0.1057
     35 H8         -0.0134   -2.9386   -0.9001 H         1 <0>         0.1468
     36 H9          0.4842   -4.3949   -0.0057 H         1 <0>         0.1452
     37 H10        -1.3594   -4.4346   -2.5144 H         1 <0>         0.1053
     38 H11        -0.7085   -5.8007   -1.5772 H         1 <0>         0.1076
     39 H12        -1.9294   -7.8051   -2.0615 H         1 <0>         0.0637
     40 H13        -3.4986   -7.6472   -2.8867 H         1 <0>         0.0693
     41 H14        -2.0446   -6.8980   -3.5886 H         1 <0>         0.0590
     42 H15        -3.7538   -5.3046   -0.0059 H         1 <0>         0.0810
     43 H16        -4.3176   -6.8590   -0.6649 H         1 <0>         0.0788
     44 H17        -2.7080   -6.7420    0.0859 H         1 <0>         0.0577
     45 H18        -2.2780   -3.7694   -3.4876 H         1 <0>         0.1408
     46 H19        -6.2785   -2.8115   -4.6272 H         1 <0>         0.1397
     47 H20        -7.1199   -4.6592   -3.2358 H         1 <0>         0.1403
     48 H21        -7.2811   -7.3342   -1.1492 H         1 <0>         0.1035
     49 H22        -7.5376   -5.5928   -1.4136 H         1 <0>         0.0565
     50 H23        -7.4004   -6.6936   -2.8056 H         1 <0>         0.0582
     51 H24        -1.3602   -5.8018    0.9036 H         1 <0>         0.3892
     52 H25        -0.2068   -2.4925    4.2356 H         1 <0>         0.4610
@<TRIPOS>BOND
     1    1    2 1
     2    1   28 1
     3    1   29 1
     4    1   30 1
     5    2    6 1
     6    2    3 2
     7    3    4 1
     8    3   31 1
     9    4    5 1
    10    4    8 1
    11    5    6 2
    12    5    7 1
    13    6   52 1
    14    7   32 1
    15    7   33 1
    16    7   34 1
    17    8    9 1
    18    8   35 1
    19    8   36 1
    20    9   10 1
    21    9   23 1
    22    9   27 1
    23   10   11 1
    24   10   37 1
    25   10   38 1
    26   11   12 1
    27   11   13 1
    28   11   14 1
    29   12   39 1
    30   12   40 1
    31   12   41 1
    32   13   42 1
    33   13   43 1
    34   13   44 1
    35   14   19 ar
    36   14   15 ar
    37   15   16 ar
    38   15   45 1
    39   16   17 ar
    40   16   22 1
    41   17   18 ar
    42   17   46 1
    43   18   19 ar
    44   18   47 1
    45   19   20 1
    46   20   21 1
    47   21   48 1
    48   21   49 1
    49   21   50 1
    50   23   24 1
    51   23   25 1
    52   23   26 1
    53   27   51 1
@<TRIPOS>MOLECULE
CHEMBL220023__1
   52    53     0     0     0
SMALL
USER_CHARGES

@<TRIPOS>ATOM
      1 C1         -1.9906    1.4347   -5.4974 C.3       1 <0>        -0.0997
      2 C2         -1.3936    0.4495   -4.5257 C.2       1 <0>         0.0357
      3 C3         -1.2809   -0.8791   -4.7145 C.2       1 <0>         0.0319
      4 N1         -0.6852   -1.3894   -3.5928 N.pl3     1 <0>        -0.4183
      5 C4         -0.4544   -0.3542   -2.7569 C.cat     1 <0>         0.3357
      6 N2         -0.8761    0.7431   -3.3236 N.pl3     1 <0>        -0.4761
      7 C5          0.1888   -0.4495   -1.3974 C.3       1 <0>        -0.1682
      8 C6         -0.3588   -2.7960   -3.3453 C.3       1 <0>         0.0621
      9 C7         -1.5543   -3.4889   -2.6883 C.3       1 <0>         0.0810
     10 C8         -1.1357   -4.8789   -2.2049 C.3       1 <0>        -0.1553
     11 C9         -2.3743   -5.6576   -1.7574 C.3       1 <0>        -0.0074
     12 C10        -3.5349   -5.3606   -2.7091 C.3       1 <0>        -0.1459
     13 C11        -2.0691   -7.1567   -1.7776 C.3       1 <0>        -0.1416
     14 C12        -2.7519   -5.2407   -0.3593 C.ar      1 <0>        -0.0668
     15 C13        -1.9265   -4.3947    0.3563 C.ar      1 <0>        -0.2015
     16 C14        -2.2732   -4.0111    1.6404 C.ar      1 <0>         0.0650
     17 C15        -3.4473   -4.4748    2.2097 C.ar      1 <0>        -0.1183
     18 C16        -4.2743   -5.3206    1.4965 C.ar      1 <0>        -0.1704
     19 C17        -3.9309   -5.7013    0.2074 C.ar      1 <0>         0.1218
     20 O1         -4.7467   -6.5291   -0.4976 O.3       1 <0>        -0.3045
     21 C18        -5.9446   -6.9644    0.1486 C.3       1 <0>         0.0200
     22 F1         -1.4652   -3.1839    2.3390 F         1 <0>        -0.1399
     23 C19        -2.0340   -2.6576   -1.4967 C.3       1 <0>         0.4612
     24 F2         -2.3554   -1.3662   -1.9283 F         1 <0>        -0.1786
     25 F3         -3.1666   -3.2572   -0.9356 F         1 <0>        -0.1238
     26 F4         -1.0186   -2.5893   -0.5368 F         1 <0>        -0.1447
     27 O2         -2.6138   -3.6142   -3.6390 O.3       1 <0>        -0.5131
     28 H1         -1.2111    1.8075   -6.1618 H         1 <0>         0.0997
     29 H2         -2.7642    0.9413   -6.0858 H         1 <0>         0.1063
     30 H3         -2.4282    2.2678   -4.9474 H         1 <0>         0.0899
     31 H4         -1.5996   -1.4351   -5.5838 H         1 <0>         0.2220
     32 H5          1.2543   -0.2363   -1.4838 H         1 <0>         0.1248
     33 H6         -0.2731    0.2738   -0.7254 H         1 <0>         0.1207
     34 H7          0.0506   -1.4549   -0.9997 H         1 <0>         0.1392
     35 H8         -0.1286   -3.2873   -4.2906 H         1 <0>         0.1521
     36 H9          0.5054   -2.8575   -2.6838 H         1 <0>         0.1397
     37 H10        -0.6444   -5.4136   -3.0178 H         1 <0>         0.1120
     38 H11        -0.4464   -4.7796   -1.3664 H         1 <0>         0.1023
     39 H12        -3.2148   -5.5317   -3.7370 H         1 <0>         0.0542
     40 H13        -4.3733   -6.0169   -2.4757 H         1 <0>         0.0684
     41 H14        -3.8434   -4.3217   -2.5928 H         1 <0>         0.0874
     42 H15        -1.3038   -7.3817   -1.0348 H         1 <0>         0.0580
     43 H16        -2.9759   -7.7153   -1.5457 H         1 <0>         0.0756
     44 H17        -1.7101   -7.4411   -2.7667 H         1 <0>         0.0626
     45 H18        -1.0101   -4.0329   -0.0862 H         1 <0>         0.1852
     46 H19        -3.7163   -4.1753    3.2119 H         1 <0>         0.1380
     47 H20        -5.1898   -5.6824    1.9409 H         1 <0>         0.1395
     48 H21        -6.5024   -7.6180   -0.5221 H         1 <0>         0.1046
     49 H22        -5.6896   -7.5090    1.0578 H         1 <0>         0.0582
     50 H23        -6.5554   -6.0983    0.4032 H         1 <0>         0.0570
     51 H24        -2.3801   -4.1304   -4.4226 H         1 <0>         0.4020
     52 H25        -0.8252    1.6308   -2.9358 H         1 <0>         0.4603
@<TRIPOS>BOND
     1    1    2 1
     2    1   28 1
     3    1   29 1
     4    1   30 1
     5    2    6 1
     6    2    3 2
     7    3    4 1
     8    3   31 1
     9    4    5 1
    10    4    8 1
    11    5    6 2
    12    5    7 1
    13    6   52 1
    14    7   32 1
    15    7   33 1
    16    7   34 1
    17    8    9 1
    18    8   35 1
    19    8   36 1
    20    9   10 1
    21    9   23 1
    22    9   27 1
    23   10   11 1
    24   10   37 1
    25   10   38 1
    26   11   12 1
    27   11   13 1
    28   11   14 1
    29   12   39 1
    30   12   40 1
    31   12   41 1
    32   13   42 1
    33   13   43 1
    34   13   44 1
    35   14   19 ar
    36   14   15 ar
    37   15   16 ar
    38   15   45 1
    39   16   17 ar
    40   16   22 1
    41   17   18 ar
    42   17   46 1
    43   18   19 ar
    44   18   47 1
    45   19   20 1
    46   20   21 1
    47   21   48 1
    48   21   49 1
    49   21   50 1
    50   23   24 1
    51   23   25 1
    52   23   26 1
    53   27   51 1
@<TRIPOS>MOLECULE
CHEMBL1214838
   44    47     0     0     0
SMALL
USER_CHARGES

@<TRIPOS>ATOM
      1 C1         -0.0167    1.3782    0.0096 C.ar      1 <0>        -0.0771
      2 C2          1.1703    2.0860    0.0021 C.ar      1 <0>        -0.1518
      3 C3          2.3786    1.4101   -0.0131 C.ar      1 <0>         0.1051
      4 C4          2.3962    0.0256   -0.0207 C.ar      1 <0>        -0.1486
      5 C5          1.2079   -0.6800   -0.0132 C.ar      1 <0>        -0.0637
      6 C6          0.0021   -0.0041    0.0020 C.ar      1 <0>        -0.1139
      7 C7         -1.2930   -0.7747    0.0103 C.3       1 <0>         0.1545
      8 C8         -1.5626   -1.3671    1.4076 C.3       1 <0>        -0.1261
      9 C9         -1.5882   -2.8604    1.1718 C.2       1 <0>         0.1580
     10 N1         -1.3814   -3.1024   -0.0788 N.2       1 <0>        -0.2489
     11 N2         -1.1952   -1.9605   -0.8554 N.pl3     1 <0>        -0.4619
     12 C10        -0.9568   -1.9443   -2.2256 C.ar      1 <0>         0.2871
     13 C11        -0.7825   -0.7303   -2.8861 C.ar      1 <0>        -0.1844
     14 C12        -0.5460   -0.7099   -4.2414 C.ar      1 <0>        -0.0110
     15 C13        -0.4804   -1.9099   -4.9567 C.ar      1 <0>        -0.0822
     16 C14        -0.6558   -3.1280   -4.2908 C.ar      1 <0>         0.0506
     17 C15        -0.8871   -3.1411   -2.9323 C.ar      1 <0>        -0.1608
     18 Cl1        -0.5760   -4.6207   -5.1735 Cl        1 <0>        -0.0487
     19 C16        -0.2348   -1.8920   -6.3674 C.1       1 <0>         0.2601
     20 N3         -0.0400   -1.8777   -7.4865 N.1       1 <0>        -0.4177
     21 C17        -1.8137   -3.8803    2.2083 C.ar      1 <0>        -0.0642
     22 C18        -2.0327   -3.4928    3.5355 C.ar      1 <0>        -0.0996
     23 C19        -2.2419   -4.4387    4.4970 C.ar      1 <0>        -0.0923
     24 C20        -2.2373   -5.7965    4.1559 C.ar      1 <0>        -0.1029
     25 C21        -2.0182   -6.1839    2.8285 C.ar      1 <0>        -0.0931
     26 C22        -1.8147   -5.2376    1.8662 C.ar      1 <0>        -0.0888
     27 C23        -2.4624   -6.8168    5.1930 C.2       1 <0>         0.5147
     28 O1         -2.6534   -6.4782    6.3530 O.co2     1 <0>        -0.6832
     29 O2         -2.4583   -8.0034    4.8948 O.co2     1 <0>        -0.6821
     30 F1          3.5396    2.1009   -0.0209 F         1 <0>        -0.1384
     31 H1         -0.9592    1.9052    0.0260 H         1 <0>         0.1367
     32 H2          1.1554    3.1659    0.0077 H         1 <0>         0.1382
     33 H3          3.3381   -0.5027   -0.0329 H         1 <0>         0.1373
     34 H4          1.2213   -1.7599   -0.0195 H         1 <0>         0.1304
     35 H5         -2.1192   -0.1372   -0.3045 H         1 <0>         0.1036
     36 H6         -0.7602   -1.1025    2.0963 H         1 <0>         0.1089
     37 H7         -2.5241   -1.0238    1.7893 H         1 <0>         0.1109
     38 H8         -0.8335    0.1963   -2.3337 H         1 <0>         0.1385
     39 H9         -0.4114    0.2320   -4.7524 H         1 <0>         0.1432
     40 H10        -1.0186   -4.0808   -2.4164 H         1 <0>         0.1539
     41 H11        -2.0359   -2.4454    3.7987 H         1 <0>         0.1199
     42 H12        -2.4105   -4.1397    5.5210 H         1 <0>         0.1330
     43 H13        -2.0146   -7.2313    2.5653 H         1 <0>         0.1324
     44 H14        -1.6501   -5.5363    0.8414 H         1 <0>         0.1245
@<TRIPOS>BOND
     1    1    6 ar
     2    1    2 ar
     3    1   31 1
     4    2    3 ar
     5    2   32 1
     6    3    4 ar
     7    3   30 1
     8    4    5 ar
     9    4   33 1
    10    5    6 ar
    11    5   34 1
    12    6    7 1
    13    7   11 1
    14    7    8 1
    15    7   35 1
    16    8    9 1
    17    8   36 1
    18    8   37 1
    19    9   10 2
    20    9   21 1
    21   10   11 1
    22   11   12 1
    23   12   17 ar
    24   12   13 ar
    25   13   14 ar
    26   13   38 1
    27   14   15 ar
    28   14   39 1
    29   15   16 ar
    30   15   19 1
    31   16   17 ar
    32   16   18 1
    33   17   40 1
    34   19   20 3
    35   21   26 ar
    36   21   22 ar
    37   22   23 ar
    38   22   41 1
    39   23   24 ar
    40   23   42 1
    41   24   25 ar
    42   24   27 1
    43   25   26 ar
    44   25   43 1
    45   26   44 1
    46   27   28 2
    47   27   29 1
@<TRIPOS>MOLECULE
CHEMBL1214838__1
   44    47     0     0     0
SMALL
USER_CHARGES

@<TRIPOS>ATOM
      1 C1         -0.0167    1.3782    0.0096 C.ar      1 <0>        -0.0770
      2 C2          1.1703    2.0860    0.0021 C.ar      1 <0>        -0.1518
      3 C3          2.3786    1.4101   -0.0131 C.ar      1 <0>         0.1051
      4 C4          2.3962    0.0256   -0.0207 C.ar      1 <0>        -0.1487
      5 C5          1.2079   -0.6800   -0.0132 C.ar      1 <0>        -0.0637
      6 C6          0.0021   -0.0041    0.0020 C.ar      1 <0>        -0.1139
      7 C7         -1.2930   -0.7747    0.0103 C.3       1 <0>         0.1545
      8 C8         -1.5893   -1.3521   -1.3879 C.3       1 <0>        -0.1262
      9 C9         -1.6106   -2.8478   -1.1677 C.2       1 <0>         0.1580
     10 N1         -1.3799   -3.1032    0.0760 N.2       1 <0>        -0.2489
     11 N2         -1.1788   -1.9697    0.8611 N.pl3     1 <0>        -0.4618
     12 C10        -0.9128   -1.9682    2.2263 C.ar      1 <0>         0.2871
     13 C11        -0.7357   -0.7610    2.8983 C.ar      1 <0>        -0.1844
     14 C12        -0.4728   -0.7551    4.2488 C.ar      1 <0>        -0.0109
     15 C13        -0.3833   -1.9632    4.9479 C.ar      1 <0>        -0.0823
     16 C14        -0.5617   -3.1745    4.2705 C.ar      1 <0>         0.0506
     17 C15        -0.8299   -3.1726    2.9187 C.ar      1 <0>        -0.1608
     18 Cl1        -0.4512   -4.6772    5.1327 Cl        1 <0>        -0.0487
     19 C16        -0.1094   -1.9604    6.3534 C.1       1 <0>         0.2601
     20 N3          0.1079   -1.9583    7.4684 N.1       1 <0>        -0.4177
     21 C17        -1.8568   -3.8565   -2.2105 C.ar      1 <0>        -0.0641
     22 C18        -2.0908   -3.4553   -3.5310 C.ar      1 <0>        -0.0996
     23 C19        -2.3192   -4.3908   -4.4983 C.ar      1 <0>        -0.0922
     24 C20        -2.3194   -5.7516   -4.1697 C.ar      1 <0>        -0.1029
     25 C21        -2.0854   -6.1528   -2.8490 C.ar      1 <0>        -0.0931
     26 C22        -1.8514   -5.2174   -1.8830 C.ar      1 <0>        -0.0888
     27 C23        -2.5662   -6.7607   -5.2129 C.2       1 <0>         0.5147
     28 O1         -2.7711   -6.4101   -6.3670 O.co2     1 <0>        -0.6832
     29 O2         -2.5665   -7.9500   -4.9257 O.co2     1 <0>        -0.6821
     30 F1          3.5396    2.1009   -0.0209 F         1 <0>        -0.1384
     31 H1         -0.9592    1.9052    0.0260 H         1 <0>         0.1367
     32 H2          1.1554    3.1659    0.0077 H         1 <0>         0.1382
     33 H3          3.3381   -0.5027   -0.0329 H         1 <0>         0.1373
     34 H4          1.2213   -1.7599   -0.0195 H         1 <0>         0.1304
     35 H5         -2.1130   -0.1407    0.3476 H         1 <0>         0.1036
     36 H6         -2.5580   -1.0048   -1.7475 H         1 <0>         0.1109
     37 H7         -0.8003   -1.0801   -2.0890 H         1 <0>         0.1088
     38 H8         -0.8045    0.1718    2.3584 H         1 <0>         0.1384
     39 H9         -0.3354    0.1815    4.7686 H         1 <0>         0.1432
     40 H10        -0.9718   -4.1066    2.3954 H         1 <0>         0.1539
     41 H11        -2.0909   -2.4054   -3.7844 H         1 <0>         0.1199
     42 H12        -2.5000   -4.0812   -5.5170 H         1 <0>         0.1330
     43 H13        -2.0856   -7.2026   -2.5955 H         1 <0>         0.1324
     44 H14        -1.6665   -5.5271   -0.8650 H         1 <0>         0.1245
@<TRIPOS>BOND
     1    1    6 ar
     2    1    2 ar
     3    1   31 1
     4    2    3 ar
     5    2   32 1
     6    3    4 ar
     7    3   30 1
     8    4    5 ar
     9    4   33 1
    10    5    6 ar
    11    5   34 1
    12    6    7 1
    13    7   11 1
    14    7    8 1
    15    7   35 1
    16    8    9 1
    17    8   36 1
    18    8   37 1
    19    9   10 2
    20    9   21 1
    21   10   11 1
    22   11   12 1
    23   12   17 ar
    24   12   13 ar
    25   13   14 ar
    26   13   38 1
    27   14   15 ar
    28   14   39 1
    29   15   16 ar
    30   15   19 1
    31   16   17 ar
    32   16   18 1
    33   17   40 1
    34   19   20 3
    35   21   26 ar
    36   21   22 ar
    37   22   23 ar
    38   22   41 1
    39   23   24 ar
    40   23   42 1
    41   24   25 ar
    42   24   27 1
    43   25   26 ar
    44   25   43 1
    45   26   44 1
    46   27   28 2
    47   27   29 1
@<TRIPOS>MOLECULE
CHEMBL375348
   57    58     0     0     0
SMALL
USER_CHARGES

@<TRIPOS>ATOM
      1 C1         -0.1963   -0.2005    1.5601 C.3       1 <0>        -0.1446
      2 C2         -1.6035   -0.5884    2.0186 C.3       1 <0>         0.0933
      3 H1         -1.5667   -0.9383    3.0502 H         1 <0>         0.0675
      4 C3         -2.1449   -1.7032    1.1197 C.3       1 <0>         0.0013
      5 N1         -3.5252   -2.0181    1.5158 N.3       1 <0>        -0.5281
      6 C4         -4.3812   -0.8274    1.4131 C.3       1 <0>         0.0241
      7 C5         -3.8174    0.2787    2.3090 C.3       1 <0>         0.0922
      8 H2         -3.8457   -0.0458    3.3492 H         1 <0>         0.0672
      9 O1         -2.4651    0.5498    1.9308 O.3       1 <0>        -0.3800
     10 C6         -4.6583    1.5464    2.1462 C.3       1 <0>        -0.1449
     11 C7         -4.0637   -3.1245    0.7133 C.3       1 <0>         0.0137
     12 C8         -3.4324   -4.4409    1.1709 C.3       1 <0>         0.1003
     13 C9         -4.0123   -5.5962    0.3525 C.3       1 <0>        -0.1554
     14 C10        -2.8716   -6.4574   -0.1935 C.3       1 <0>         0.0007
     15 C11        -1.8896   -6.7781    0.9350 C.3       1 <0>        -0.1482
     16 C12        -3.4416   -7.7598   -0.7591 C.3       1 <0>        -0.1400
     17 C13        -2.1541   -5.7070   -1.2857 C.ar      1 <0>        -0.0669
     18 C14        -2.6451   -4.4938   -1.7285 C.ar      1 <0>        -0.1654
     19 C15        -1.9860   -3.8039   -2.7314 C.ar      1 <0>         0.0701
     20 C16        -0.8340   -4.3288   -3.2927 C.ar      1 <0>        -0.1174
     21 C17        -0.3408   -5.5415   -2.8520 C.ar      1 <0>        -0.1703
     22 C18        -0.9973   -6.2311   -1.8430 C.ar      1 <0>         0.1295
     23 O2         -0.5099   -7.4220   -1.4044 O.3       1 <0>        -0.2985
     24 C19         0.6855   -7.9013   -2.0235 C.3       1 <0>         0.0207
     25 F1         -2.4672   -2.6178   -3.1634 F         1 <0>        -0.1379
     26 C20        -3.7358   -4.6637    2.6538 C.3       1 <0>         0.4791
     27 F2         -4.8673   -3.9242    3.0145 F         1 <0>        -0.1705
     28 F3         -3.9751   -6.0231    2.8818 F         1 <0>        -0.1783
     29 F4         -2.6426   -4.2475    3.4212 F         1 <0>        -0.1629
     30 O3         -2.0177   -4.3832    0.9775 O.3       1 <0>        -0.5217
     31 H3          0.1880    0.5943    2.1995 H         1 <0>         0.0668
     32 H4          0.4595   -1.0687    1.6258 H         1 <0>         0.0732
     33 H5         -0.2338    0.1493    0.5284 H         1 <0>         0.0614
     34 H6         -2.1307   -1.3725    0.0811 H         1 <0>         0.0404
     35 H7         -1.5234   -2.5920    1.2278 H         1 <0>         0.1148
     36 H8         -4.4028   -0.4827    0.3792 H         1 <0>         0.0454
     37 H9         -5.3921   -1.0769    1.7354 H         1 <0>         0.0876
     38 H10        -5.6893    1.3378    2.4322 H         1 <0>         0.0727
     39 H11        -4.2565    2.3334    2.7843 H         1 <0>         0.0674
     40 H12        -4.6284    1.8712    1.1062 H         1 <0>         0.0623
     41 H13        -5.1447   -3.1753    0.8437 H         1 <0>         0.1019
     42 H14        -3.8321   -2.9567   -0.3385 H         1 <0>         0.0653
     43 H15        -4.6551   -6.2051    0.9882 H         1 <0>         0.1007
     44 H16        -4.5953   -5.1969   -0.4774 H         1 <0>         0.0868
     45 H17        -2.4295   -6.8401    1.8799 H         1 <0>         0.0607
     46 H18        -1.4017   -7.7315    0.7321 H         1 <0>         0.0575
     47 H19        -1.1379   -5.9912    0.9971 H         1 <0>         0.0858
     48 H20        -4.0883   -7.5353   -1.6072 H         1 <0>         0.0529
     49 H21        -2.6241   -8.4026   -1.0857 H         1 <0>         0.0706
     50 H22        -4.0184   -8.2694    0.0128 H         1 <0>         0.0628
     51 H23        -3.5439   -4.0836   -1.2921 H         1 <0>         0.1503
     52 H24        -0.3211   -3.7899   -4.0756 H         1 <0>         0.1400
     53 H25         0.5574   -5.9508   -3.2902 H         1 <0>         0.1413
     54 H26         0.5146   -8.0305   -3.0923 H         1 <0>         0.0564
     55 H27         1.4889   -7.1812   -1.8685 H         1 <0>         0.0577
     56 H28         0.9649   -8.8579   -1.5820 H         1 <0>         0.1037
     57 H29        -1.7529   -4.0826    0.0974 H         1 <0>         0.3849
@<TRIPOS>BOND
     1    1    2 1
     2    1   31 1
     3    1   32 1
     4    1   33 1
     5    2    3 1
     6    2    9 1
     7    2    4 1
     8    4    5 1
     9    4   34 1
    10    4   35 1
    11    5    6 1
    12    5   11 1
    13    6    7 1
    14    6   36 1
    15    6   37 1
    16    7    8 1
    17    7    9 1
    18    7   10 1
    19   10   38 1
    20   10   39 1
    21   10   40 1
    22   11   12 1
    23   11   41 1
    24   11   42 1
    25   12   13 1
    26   12   26 1
    27   12   30 1
    28   13   14 1
    29   13   43 1
    30   13   44 1
    31   14   15 1
    32   14   16 1
    33   14   17 1
    34   15   45 1
    35   15   46 1
    36   15   47 1
    37   16   48 1
    38   16   49 1
    39   16   50 1
    40   17   22 ar
    41   17   18 ar
    42   18   19 ar
    43   18   51 1
    44   19   20 ar
    45   19   25 1
    46   20   21 ar
    47   20   52 1
    48   21   22 ar
    49   21   53 1
    50   22   23 1
    51   23   24 1
    52   24   54 1
    53   24   55 1
    54   24   56 1
    55   26   27 1
    56   26   28 1
    57   26   29 1
    58   30   57 1
@<TRIPOS>MOLECULE
CHEMBL375348__1
   57    58     0     0     0
SMALL
USER_CHARGES

@<TRIPOS>ATOM
      1 C1         -1.0935   -1.1353    5.3420 C.3       1 <0>        -0.1453
      2 C2         -1.3150   -2.5145    4.7179 C.3       1 <0>         0.0923
      3 H1         -0.3676   -2.8999    4.3411 H         1 <0>         0.0672
      4 C3         -2.3148   -2.3989    3.5642 C.3       1 <0>         0.0234
      5 N1         -2.5824   -3.7375    3.0186 N.3       1 <0>        -0.5264
      6 C4         -3.1153   -4.6277    4.0602 C.3       1 <0>         0.0127
      7 C5         -2.1074   -4.7209    5.2088 C.3       1 <0>         0.0914
      8 H2         -1.1833   -5.1713    4.8465 H         1 <0>         0.0668
      9 O1         -1.8350   -3.4080    5.7061 O.3       1 <0>        -0.3809
     10 C6         -2.6899   -5.5826    6.3310 C.3       1 <0>        -0.1440
     11 C7         -3.4957   -3.6650    1.8703 C.3       1 <0>         0.0233
     12 C8         -3.3751   -4.9452    1.0411 C.3       1 <0>         0.1056
     13 C9         -4.2167   -4.8110   -0.2296 C.3       1 <0>        -0.1534
     14 C10        -4.1855   -6.1303   -1.0037 C.3       1 <0>        -0.0127
     15 C11        -4.1949   -7.3004   -0.0179 C.3       1 <0>        -0.1499
     16 C12        -5.4141   -6.2183   -1.9113 C.3       1 <0>        -0.1355
     17 C13        -2.9354   -6.1908   -1.8432 C.ar      1 <0>        -0.0663
     18 C14        -2.2924   -5.0243   -2.2105 C.ar      1 <0>        -0.1315
     19 C15        -1.1438   -5.0796   -2.9812 C.ar      1 <0>         0.0670
     20 C16        -0.6380   -6.3036   -3.3855 C.ar      1 <0>        -0.1219
     21 C17        -1.2788   -7.4713   -3.0197 C.ar      1 <0>        -0.1789
     22 C18        -2.4267   -7.4176   -2.2426 C.ar      1 <0>         0.1291
     23 O2         -3.0552   -8.5664   -1.8771 O.3       1 <0>        -0.2958
     24 C19        -2.4754   -9.7936   -2.3241 C.3       1 <0>         0.0168
     25 F1         -0.5161   -3.9382   -3.3397 F         1 <0>        -0.1408
     26 C20        -1.9103   -5.1707    0.6612 C.3       1 <0>         0.4715
     27 F2         -1.1175   -5.1254    1.8130 F         1 <0>        -0.1551
     28 F3         -1.7742   -6.4219    0.0504 F         1 <0>        -0.1613
     29 F4         -1.4997   -4.1710   -0.2271 F         1 <0>        -0.1749
     30 O3         -3.8446   -6.0556    1.8083 O.3       1 <0>        -0.5235
     31 H3         -0.3827   -1.2185    6.1643 H         1 <0>         0.0674
     32 H4         -0.6986   -0.4544    4.5880 H         1 <0>         0.0726
     33 H5         -2.0412   -0.7504    5.7186 H         1 <0>         0.0621
     34 H6         -3.2442   -1.9627    3.9304 H         1 <0>         0.0438
     35 H7         -1.8971   -1.7641    2.7828 H         1 <0>         0.0852
     36 H8         -4.0575   -4.2271    4.4343 H         1 <0>         0.0383
     37 H9         -3.2819   -5.6199    3.6407 H         1 <0>         0.1125
     38 H10        -2.8997   -6.5821    5.9500 H         1 <0>         0.0734
     39 H11        -1.9719   -5.6485    7.1484 H         1 <0>         0.0659
     40 H12        -3.6132   -5.1309    6.6939 H         1 <0>         0.0610
     41 H13        -4.5202   -3.5584    2.2270 H         1 <0>         0.0623
     42 H14        -3.2349   -2.8059    1.2522 H         1 <0>         0.0941
     43 H15        -5.2455   -4.5718    0.0395 H         1 <0>         0.0939
     44 H16        -3.8096   -4.0145   -0.8526 H         1 <0>         0.0928
     45 H17        -4.9893   -7.1527    0.7137 H         1 <0>         0.0543
     46 H18        -4.3680   -8.2304   -0.5594 H         1 <0>         0.0657
     47 H19        -3.2342   -7.3516    0.4944 H         1 <0>         0.0935
     48 H20        -5.3627   -5.4365   -2.6691 H         1 <0>         0.0543
     49 H21        -5.4381   -7.1939   -2.3968 H         1 <0>         0.0639
     50 H22        -6.3168   -6.0871   -1.3146 H         1 <0>         0.0599
     51 H23        -2.6863   -4.0690   -1.8965 H         1 <0>         0.1463
     52 H24         0.2578   -6.3452   -3.9873 H         1 <0>         0.1350
     53 H25        -0.8842   -8.4258   -3.3355 H         1 <0>         0.1360
     54 H26        -2.4497   -9.8076   -3.4137 H         1 <0>         0.0540
     55 H27        -1.4605   -9.8786   -1.9356 H         1 <0>         0.0552
     56 H28        -3.0736  -10.6305   -1.9640 H         1 <0>         0.1001
     57 H29        -4.7683   -5.9805    2.0844 H         1 <0>         0.3872
@<TRIPOS>BOND
     1    1    2 1
     2    1   31 1
     3    1   32 1
     4    1   33 1
     5    2    3 1
     6    2    9 1
     7    2    4 1
     8    4    5 1
     9    4   34 1
    10    4   35 1
    11    5    6 1
    12    5   11 1
    13    6    7 1
    14    6   36 1
    15    6   37 1
    16    7    8 1
    17    7    9 1
    18    7   10 1
    19   10   38 1
    20   10   39 1
    21   10   40 1
    22   11   12 1
    23   11   41 1
    24   11   42 1
    25   12   13 1
    26   12   26 1
    27   12   30 1
    28   13   14 1
    29   13   43 1
    30   13   44 1
    31   14   15 1
    32   14   16 1
    33   14   17 1
    34   15   45 1
    35   15   46 1
    36   15   47 1
    37   16   48 1
    38   16   49 1
    39   16   50 1
    40   17   22 ar
    41   17   18 ar
    42   18   19 ar
    43   18   51 1
    44   19   20 ar
    45   19   25 1
    46   20   21 ar
    47   20   52 1
    48   21   22 ar
    49   21   53 1
    50   22   23 1
    51   23   24 1
    52   24   54 1
    53   24   55 1
    54   24   56 1
    55   26   27 1
    56   26   28 1
    57   26   29 1
    58   30   57 1
@<TRIPOS>MOLECULE
CHEMBL1215196
   51    54     0     0     0
SMALL
USER_CHARGES

@<TRIPOS>ATOM
      1 C1          1.2395    1.0863   -0.1852 C.3       1 <0>         0.0244
      2 O1          0.9459   -0.3119   -0.1549 O.3       1 <0>        -0.2952
      3 C2          1.5269   -1.0850   -1.1092 C.ar      1 <0>         0.1490
      4 C3          2.3632   -0.5149   -2.0482 C.ar      1 <0>        -0.1786
      5 C4          2.9580   -1.3171   -3.0282 C.ar      1 <0>        -0.0688
      6 C5          2.7053   -2.6937   -3.0555 C.ar      1 <0>        -0.1238
      7 C6          1.8791   -3.2592   -2.1284 C.ar      1 <0>        -0.0688
      8 C7          1.2835   -2.4673   -1.1406 C.ar      1 <0>        -0.0912
      9 C8          0.3982   -3.0818   -0.1392 C.2       1 <0>         0.1509
     10 N1         -0.2100   -2.4480    0.8063 N.2       1 <0>        -0.2237
     11 N2         -0.9923   -3.2612    1.6238 N.pl3     1 <0>        -0.4629
     12 C9         -0.8900   -4.6509    1.1510 C.3       1 <0>         0.1157
     13 H1         -0.4615   -5.2885    1.9242 H         1 <0>         0.0903
     14 C10         0.0552   -4.5524   -0.0626 C.3       1 <0>        -0.1297
     15 C11        -2.2617   -5.1758    0.7220 C.3       1 <0>        -0.1030
     16 C12        -2.1288   -6.6084    0.1654 C.3       1 <0>        -0.1192
     17 C13        -3.1447   -6.6578   -1.0027 C.3       1 <0>        -0.1231
     18 C14        -3.0123   -5.2481   -1.6307 C.3       1 <0>        -0.1263
     19 C15        -2.8234   -4.3109   -0.4201 C.3       1 <0>        -0.1203
     20 C16        -1.7465   -2.8298    2.7094 C.ar      1 <0>         0.2931
     21 C17        -2.3610   -3.7617    3.5429 C.ar      1 <0>        -0.1937
     22 C18        -3.1081   -3.3391    4.6181 C.ar      1 <0>        -0.0104
     23 C19        -3.2505   -1.9717    4.8749 C.ar      1 <0>        -0.0894
     24 C20        -2.6319   -1.0375    4.0364 C.ar      1 <0>         0.0520
     25 C21        -1.8810   -1.4682    2.9641 C.ar      1 <0>        -0.1614
     26 Cl1        -2.8051    0.6611    4.3502 Cl        1 <0>        -0.0522
     27 C22        -4.0278   -1.5285    5.9929 C.1       1 <0>         0.2622
     28 N3         -4.6445   -1.1770    6.8798 N.1       1 <0>        -0.4222
     29 C23         3.8502   -0.7128   -4.0318 C.2       1 <0>         0.5157
     30 O2          4.0711    0.4903   -4.0086 O.co2     1 <0>        -0.6818
     31 O3          4.3706   -1.4139   -4.8888 O.co2     1 <0>        -0.6796
     32 H2          2.3130    1.2347   -0.0688 H         1 <0>         0.0554
     33 H3          0.9160    1.5049   -1.1382 H         1 <0>         0.0553
     34 H4          0.7133    1.5857    0.6283 H         1 <0>         0.0952
     35 H5          2.5574    0.5473   -2.0267 H         1 <0>         0.1388
     36 H6          3.1656   -3.3103   -3.8133 H         1 <0>         0.1345
     37 H7          1.6878   -4.3218   -2.1546 H         1 <0>         0.1260
     38 H8         -0.4523   -4.8744   -0.9719 H         1 <0>         0.1091
     39 H9          0.9536   -5.1462    0.1056 H         1 <0>         0.1014
     40 H10        -2.9468   -5.1658    1.5696 H         1 <0>         0.0835
     41 H11        -1.1173   -6.7830   -0.2010 H         1 <0>         0.0725
     42 H12        -2.3904   -7.3403    0.9297 H         1 <0>         0.0678
     43 H13        -2.8688   -7.4287   -1.7223 H         1 <0>         0.0676
     44 H14        -4.1556   -6.8208   -0.6290 H         1 <0>         0.0659
     45 H15        -2.1434   -5.2031   -2.2873 H         1 <0>         0.0678
     46 H16        -3.9186   -4.9873   -2.1773 H         1 <0>         0.0648
     47 H17        -3.7815   -3.8818   -0.1269 H         1 <0>         0.0623
     48 H18        -2.1188   -3.5173   -0.6686 H         1 <0>         0.0687
     49 H19        -2.2509   -4.8177    3.3445 H         1 <0>         0.1385
     50 H20        -3.5845   -4.0626    5.2630 H         1 <0>         0.1421
     51 H21        -1.3997   -0.7484    2.3186 H         1 <0>         0.1548
@<TRIPOS>BOND
     1    1    2 1
     2    1   32 1
     3    1   33 1
     4    1   34 1
     5    2    3 1
     6    3    8 ar
     7    3    4 ar
     8    4    5 ar
     9    4   35 1
    10    5    6 ar
    11    5   29 1
    12    6    7 ar
    13    6   36 1
    14    7    8 ar
    15    7   37 1
    16    8    9 1
    17    9   14 1
    18    9   10 2
    19   10   11 1
    20   11   12 1
    21   11   20 1
    22   12   13 1
    23   12   14 1
    24   12   15 1
    25   14   38 1
    26   14   39 1
    27   15   19 1
    28   15   16 1
    29   15   40 1
    30   16   17 1
    31   16   41 1
    32   16   42 1
    33   17   18 1
    34   17   43 1
    35   17   44 1
    36   18   19 1
    37   18   45 1
    38   18   46 1
    39   19   47 1
    40   19   48 1
    41   20   25 ar
    42   20   21 ar
    43   21   22 ar
    44   21   49 1
    45   22   23 ar
    46   22   50 1
    47   23   24 ar
    48   23   27 1
    49   24   25 ar
    50   24   26 1
    51   25   51 1
    52   27   28 3
    53   29   30 2
    54   29   31 1
@<TRIPOS>MOLECULE
CHEMBL259820
   59    63     0     0     0
SMALL
USER_CHARGES

@<TRIPOS>ATOM
      1 C1         -0.0228    1.4075   -0.1523 C.3       1 <0>        -0.1154
      2 C2          0.2740   -0.0671   -0.0601 C.ar      1 <0>        -0.1213
      3 C3          0.7898   -0.7375   -1.1558 C.ar      1 <0>        -0.0888
      4 C4          1.0657   -2.0914   -1.0814 C.ar      1 <0>        -0.1278
      5 C5          0.8287   -2.7851    0.0870 C.ar      1 <0>        -0.0785
      6 C6          0.3079   -2.1171    1.1993 C.ar      1 <0>        -0.0812
      7 C7          0.0361   -0.7451    1.1188 C.ar      1 <0>         0.1069
      8 F1         -0.4617   -0.0888    2.1896 F         1 <0>        -0.1341
      9 C8          0.0518   -2.8497    2.4490 C.2       1 <0>        -0.1032
     10 C9         -0.0319   -4.1909    2.4366 C.2       1 <0>         0.1011
     11 C10        -0.1456   -5.0357    3.6304 C.ar      1 <0>        -0.0187
     12 C11        -1.1913   -6.0088    3.5491 C.ar      1 <0>        -0.0925
     13 C12        -1.6379   -6.5991    4.7164 C.ar      1 <0>        -0.0443
     14 C13        -1.0213   -6.3173    5.9244 C.ar      1 <0>        -0.1963
     15 C14         0.1264   -5.5381    5.9652 C.ar      1 <0>         0.2366
     16 C15         0.6281   -4.9673    4.7812 C.ar      1 <0>        -0.0822
     17 C16         1.9836   -4.3967    4.8282 C.2       1 <0>        -0.0567
     18 C17         2.6182   -4.2505    5.9855 C.2       1 <0>        -0.1682
     19 C18         2.0474   -4.6591    7.3093 C.3       1 <0>         0.2144
     20 N1          0.7413   -5.2981    7.1872 N.pl3     1 <0>        -0.7247
     21 C19         3.0193   -5.6473    7.9738 C.3       1 <0>        -0.1604
     22 C20         1.9232   -3.4233    8.2103 C.3       1 <0>        -0.1585
     23 C21         2.7315   -4.0246    3.5717 C.3       1 <0>        -0.1167
     24 C22        -1.6957   -6.3334    2.1980 C.ar      1 <0>        -0.0855
     25 C23        -1.0532   -5.7642    1.0824 C.ar      1 <0>         0.1126
     26 C24        -1.4669   -6.0774   -0.2010 C.ar      1 <0>        -0.1235
     27 C25        -2.5337   -6.9329   -0.4010 C.ar      1 <0>        -0.1027
     28 C26        -3.1951   -7.4773    0.6856 C.ar      1 <0>         0.0689
     29 C27        -2.7842   -7.1780    1.9840 C.ar      1 <0>         0.1069
     30 O1         -3.4872   -7.7216    3.0100 O.3       1 <0>        -0.3268
     31 C28        -4.6035   -6.9754    3.4989 C.3       1 <0>         0.0346
     32 O2         -4.2539   -8.3124    0.4970 O.3       1 <0>        -0.4883
     33 O3         -0.0295   -4.8804    1.2460 O.3       1 <0>        -0.2415
     34 H1          0.8608    1.9749    0.1400 H         1 <0>         0.0746
     35 H2         -0.2941    1.6601   -1.1773 H         1 <0>         0.0733
     36 H3         -0.8497    1.6540    0.5137 H         1 <0>         0.0696
     37 H4          0.9775   -0.2009   -2.0741 H         1 <0>         0.1323
     38 H5          1.4676   -2.6068   -1.9412 H         1 <0>         0.1314
     39 H6          1.0446   -3.8419    0.1423 H         1 <0>         0.1505
     40 H7         -0.0689   -2.3097    3.3765 H         1 <0>         0.1469
     41 H8         -2.4618   -7.2935    4.7248 H         1 <0>         0.1437
     42 H9         -1.4345   -6.7062    6.8416 H         1 <0>         0.1291
     43 H10         3.6125   -3.8067    5.9627 H         1 <0>         0.1286
     44 H11         0.2700   -5.5710    8.0100 H         1 <0>         0.4055
     45 H12         3.9860   -5.1647    8.1179 H         1 <0>         0.0694
     46 H13         2.6197   -5.9560    8.9397 H         1 <0>         0.0611
     47 H14         3.1415   -6.5219    7.3348 H         1 <0>         0.0596
     48 H15         1.2648   -2.6941    7.7381 H         1 <0>         0.0607
     49 H16         1.5081   -3.7169    9.1744 H         1 <0>         0.0613
     50 H17         2.9084   -2.9811    8.3583 H         1 <0>         0.0707
     51 H18         2.5120   -2.9892    3.3114 H         1 <0>         0.0727
     52 H19         3.8025   -4.1379    3.7394 H         1 <0>         0.0680
     53 H20         2.4202   -4.6780    2.7567 H         1 <0>         0.0680
     54 H21        -0.9500   -5.6513   -1.0493 H         1 <0>         0.1431
     55 H22        -2.8450   -7.1755   -1.4028 H         1 <0>         0.1440
     56 H23        -4.2620   -6.0051    3.8595 H         1 <0>         0.0476
     57 H24        -5.3243   -6.8308    2.6942 H         1 <0>         0.0538
     58 H25        -5.0756   -7.5210    4.3159 H         1 <0>         0.0978
     59 H26        -4.0113   -9.2461    0.4294 H         1 <0>         0.3924
@<TRIPOS>BOND
     1    1    2 1
     2    1   34 1
     3    1   35 1
     4    1   36 1
     5    2    7 ar
     6    2    3 ar
     7    3    4 ar
     8    3   37 1
     9    4    5 ar
    10    4   38 1
    11    5    6 ar
    12    5   39 1
    13    6    7 ar
    14    6    9 1
    15    7    8 1
    16    9   10 2
    17    9   40 1
    18   10   33 1
    19   10   11 1
    20   11   16 ar
    21   11   12 ar
    22   12   13 ar
    23   12   24 1
    24   13   14 ar
    25   13   41 1
    26   14   15 ar
    27   14   42 1
    28   15   20 1
    29   15   16 ar
    30   16   17 1
    31   17   18 2
    32   17   23 1
    33   18   19 1
    34   18   43 1
    35   19   20 1
    36   19   21 1
    37   19   22 1
    38   20   44 1
    39   21   45 1
    40   21   46 1
    41   21   47 1
    42   22   48 1
    43   22   49 1
    44   22   50 1
    45   23   51 1
    46   23   52 1
    47   23   53 1
    48   24   29 ar
    49   24   25 ar
    50   25   26 ar
    51   25   33 1
    52   26   27 ar
    53   26   54 1
    54   27   28 ar
    55   27   55 1
    56   28   29 ar
    57   28   32 1
    58   29   30 1
    59   30   31 1
    60   31   56 1
    61   31   57 1
    62   31   58 1
    63   32   59 1
@<TRIPOS>MOLECULE
CHEMBL294800
   48    51     0     0     0
SMALL
USER_CHARGES

@<TRIPOS>ATOM
      1 C1         -0.0184    1.5028    0.0103 C.3       1 <0>        -0.1114
      2 C2          0.0021   -0.0041    0.0020 C.ar      1 <0>        -0.0884
      3 C3          0.0057   -0.6888   -1.1991 C.ar      1 <0>        -0.1206
      4 C4          0.0245   -2.0707   -1.2067 C.ar      1 <0>        -0.1187
      5 C5          0.0400   -2.7685   -0.0132 C.ar      1 <0>        -0.0923
      6 C6          0.0373   -2.0840    1.1875 C.ar      1 <0>        -0.0622
      7 C7          0.0229   -0.7015    1.1951 C.ar      1 <0>        -0.1029
      8 C8          0.0538   -2.8445    2.4885 C.3       1 <0>         0.1873
      9 C9          1.4780   -3.1626    2.8612 C.ar      1 <0>        -0.0778
     10 C10         2.5125   -2.3411    2.4735 C.ar      1 <0>        -0.1596
     11 C11         3.8171   -2.6477    2.8450 C.ar      1 <0>         0.2945
     12 C12         4.0815   -3.7792    3.6082 C.ar      1 <0>        -0.2585
     13 C13         3.0487   -4.6096    3.9943 C.ar      1 <0>        -0.0348
     14 C14         1.7462   -4.3082    3.6153 C.ar      1 <0>        -0.1534
     15 C15         0.6105   -5.1914    3.9673 C.ar      1 <0>        -0.0926
     16 C16        -0.6102   -4.9923    3.3092 C.ar      1 <0>         0.1462
     17 C17        -1.6968   -5.7864    3.6322 C.ar      1 <0>        -0.1730
     18 C18        -1.5675   -6.7856    4.5802 C.ar      1 <0>        -0.0756
     19 C19        -0.3566   -7.0047    5.2102 C.ar      1 <0>        -0.2275
     20 C20         0.7404   -6.2116    4.9048 C.ar      1 <0>         0.1444
     21 O1          1.9336   -6.4301    5.5168 O.3       1 <0>        -0.2996
     22 C21         1.9897   -7.4953    6.4676 C.3       1 <0>         0.0221
     23 O2         -0.7037   -4.0445    2.3428 O.3       1 <0>        -0.3068
     24 N1          4.8664   -1.8149    2.4499 N.2       1 <0>        -1.0935
     25 S1          6.4213   -2.1765    2.8901 S.o2      1 <0>         2.5248
     26 O3          6.4276   -2.0833    4.3081 O.2       1 <0>        -1.0289
     27 O4          6.7035   -3.4102    2.2439 O.2       1 <0>        -1.0286
     28 C22         7.4294   -0.8502    2.1723 C.3       1 <0>        -0.6374
     29 H1          1.0042    1.8801    0.0026 H         1 <0>         0.0709
     30 H2         -0.5455    1.8639   -0.8728 H         1 <0>         0.0623
     31 H3         -0.5286    1.8543    0.9071 H         1 <0>         0.0642
     32 H4         -0.0064   -0.1437   -2.1314 H         1 <0>         0.1177
     33 H5          0.0266   -2.6056   -2.1449 H         1 <0>         0.1198
     34 H6          0.0540   -3.8484   -0.0191 H         1 <0>         0.1245
     35 H7          0.0246   -0.1666    2.1333 H         1 <0>         0.1234
     36 H8         -0.3916   -2.2299    3.2708 H         1 <0>         0.0800
     37 H9          2.3113   -1.4604    1.8817 H         1 <0>         0.1190
     38 H10         5.0960   -4.0088    3.8990 H         1 <0>         0.1043
     39 H11         3.2517   -5.4886    4.5880 H         1 <0>         0.1288
     40 H12        -2.6466   -5.6256    3.1440 H         1 <0>         0.1271
     41 H13        -2.4200   -7.3996    4.8305 H         1 <0>         0.1246
     42 H14        -0.2643   -7.7943    5.9412 H         1 <0>         0.1249
     43 H15         1.2792   -7.3026    7.2715 H         1 <0>         0.0523
     44 H16         1.7363   -8.4347    5.9762 H         1 <0>         0.0524
     45 H17         2.9963   -7.5613    6.8805 H         1 <0>         0.0971
     46 H18         7.1086    0.1097    2.5771 H         1 <0>         0.1152
     47 H19         8.4779   -1.0165    2.4194 H         1 <0>         0.1013
     48 H20         7.3075   -0.8468    1.0892 H         1 <0>         0.1152
@<TRIPOS>BOND
     1    1    2 1
     2    1   29 1
     3    1   30 1
     4    1   31 1
     5    2    7 ar
     6    2    3 ar
     7    3    4 ar
     8    3   32 1
     9    4    5 ar
    10    4   33 1
    11    5    6 ar
    12    5   34 1
    13    6    7 ar
    14    6    8 1
    15    7   35 1
    16    8   23 1
    17    8    9 1
    18    8   36 1
    19    9   14 ar
    20    9   10 ar
    21   10   11 ar
    22   10   37 1
    23   11   12 ar
    24   11   24 1
    25   12   13 ar
    26   12   38 1
    27   13   14 ar
    28   13   39 1
    29   14   15 1
    30   15   20 ar
    31   15   16 ar
    32   16   17 ar
    33   16   23 1
    34   17   18 ar
    35   17   40 1
    36   18   19 ar
    37   18   41 1
    38   19   20 ar
    39   19   42 1
    40   20   21 1
    41   21   22 1
    42   22   43 1
    43   22   44 1
    44   22   45 1
    45   24   25 1
    46   25   26 2
    47   25   27 2
    48   25   28 1
    49   28   46 1
    50   28   47 1
    51   28   48 1
@<TRIPOS>MOLECULE
CHEMBL294800__1
   48    51     0     0     0
SMALL
USER_CHARGES

@<TRIPOS>ATOM
      1 C1         -0.0184    1.5028    0.0103 C.3       1 <0>        -0.1114
      2 C2          0.0021   -0.0041    0.0020 C.ar      1 <0>        -0.0903
      3 C3          0.0057   -0.6888   -1.1991 C.ar      1 <0>        -0.1227
      4 C4          0.0245   -2.0707   -1.2067 C.ar      1 <0>        -0.1169
      5 C5          0.0400   -2.7685   -0.0132 C.ar      1 <0>        -0.1106
      6 C6          0.0373   -2.0840    1.1875 C.ar      1 <0>        -0.0950
      7 C7          0.0229   -0.7015    1.1951 C.ar      1 <0>        -0.1018
      8 C8          0.0538   -2.8445    2.4885 C.3       1 <0>         0.1847
      9 C9         -1.3428   -3.3055    2.8134 C.ar      1 <0>        -0.0723
     10 C10        -2.1930   -2.5200    3.5587 C.ar      1 <0>        -0.1637
     11 C11        -3.4836   -2.9609    3.8307 C.ar      1 <0>         0.2958
     12 C12        -3.9203   -4.1907    3.3516 C.ar      1 <0>        -0.2576
     13 C13        -3.0697   -4.9849    2.6091 C.ar      1 <0>        -0.0345
     14 C14        -1.7772   -4.5484    2.3452 C.ar      1 <0>        -0.1499
     15 C15        -0.8138   -5.3836    1.5912 C.ar      1 <0>        -0.0938
     16 C16         0.5392   -5.0212    1.6204 C.ar      1 <0>         0.1489
     17 C17         1.4609   -5.7683    0.9076 C.ar      1 <0>        -0.1776
     18 C18         1.0490   -6.8792    0.1935 C.ar      1 <0>        -0.0746
     19 C19        -0.2807   -7.2573    0.1866 C.ar      1 <0>        -0.2287
     20 C20        -1.2193   -6.5142    0.8884 C.ar      1 <0>         0.1445
     21 O1         -2.5255   -6.8882    0.8896 O.3       1 <0>        -0.2991
     22 C21        -2.8655   -8.0598    0.1454 C.3       1 <0>         0.0219
     23 O2          0.9331   -3.9615    2.3706 O.3       1 <0>        -0.3024
     24 N1         -4.3451   -2.1644    4.5884 N.2       1 <0>        -1.0952
     25 S1         -5.8827   -2.6858    4.9145 S.o2      1 <0>         2.5256
     26 O3         -6.5167   -2.7617    3.6451 O.2       1 <0>        -1.0285
     27 O4         -5.7095   -3.8514    5.7086 O.2       1 <0>        -1.0284
     28 C22        -6.6244   -1.3594    5.9051 C.3       1 <0>        -0.6375
     29 H1          1.0042    1.8801    0.0026 H         1 <0>         0.0666
     30 H2         -0.5455    1.8639   -0.8728 H         1 <0>         0.0632
     31 H3         -0.5286    1.8543    0.9071 H         1 <0>         0.0670
     32 H4         -0.0064   -0.1437   -2.1314 H         1 <0>         0.1172
     33 H5          0.0266   -2.6056   -2.1449 H         1 <0>         0.1182
     34 H6          0.0540   -3.8484   -0.0191 H         1 <0>         0.1274
     35 H7          0.0246   -0.1666    2.1333 H         1 <0>         0.1242
     36 H8          0.4081   -2.1894    3.2843 H         1 <0>         0.1269
     37 H9         -1.8583   -1.5633    3.9317 H         1 <0>         0.1155
     38 H10        -4.9257   -4.5251    3.5607 H         1 <0>         0.1045
     39 H11        -3.4071   -5.9404    2.2354 H         1 <0>         0.1288
     40 H12         2.5026   -5.4833    0.9085 H         1 <0>         0.1276
     41 H13         1.7724   -7.4560   -0.3636 H         1 <0>         0.1249
     42 H14        -0.5895   -8.1324   -0.3659 H         1 <0>         0.1251
     43 H15        -2.6039   -7.9132   -0.9026 H         1 <0>         0.0523
     44 H16        -2.3159   -8.9139    0.5410 H         1 <0>         0.0527
     45 H17        -3.9362   -8.2459    0.2299 H         1 <0>         0.0972
     46 H18        -6.6261   -0.4337    5.3296 H         1 <0>         0.1152
     47 H19        -7.6486   -1.6284    6.1637 H         1 <0>         0.1014
     48 H20        -6.0443   -1.2192    6.8171 H         1 <0>         0.1154
@<TRIPOS>BOND
     1    1    2 1
     2    1   29 1
     3    1   30 1
     4    1   31 1
     5    2    7 ar
     6    2    3 ar
     7    3    4 ar
     8    3   32 1
     9    4    5 ar
    10    4   33 1
    11    5    6 ar
    12    5   34 1
    13    6    7 ar
    14    6    8 1
    15    7   35 1
    16    8   23 1
    17    8    9 1
    18    8   36 1
    19    9   14 ar
    20    9   10 ar
    21   10   11 ar
    22   10   37 1
    23   11   12 ar
    24   11   24 1
    25   12   13 ar
    26   12   38 1
    27   13   14 ar
    28   13   39 1
    29   14   15 1
    30   15   20 ar
    31   15   16 ar
    32   16   17 ar
    33   16   23 1
    34   17   18 ar
    35   17   40 1
    36   18   19 ar
    37   18   41 1
    38   19   20 ar
    39   19   42 1
    40   20   21 1
    41   21   22 1
    42   22   43 1
    43   22   44 1
    44   22   45 1
    45   24   25 1
    46   25   26 2
    47   25   27 2
    48   25   28 1
    49   28   46 1
    50   28   47 1
    51   28   48 1
@<TRIPOS>MOLECULE
CHEMBL1215482
   46    48     0     0     0
SMALL
USER_CHARGES

@<TRIPOS>ATOM
      1 C1         -2.4527    0.6988   -1.7209 C.3       1 <0>        -0.1503
      2 C2         -1.9245   -0.7025   -1.4075 C.3       1 <0>         0.0665
      3 O1         -0.7789   -0.9720   -2.2180 O.3       1 <0>        -0.3403
      4 C3         -0.1879   -2.1762   -2.0630 C.2       1 <0>         0.5164
      5 O2         -0.6350   -2.9750   -1.2602 O.2       1 <0>        -0.5052
      6 C4          0.9454   -2.5081   -2.8298 C.2       1 <0>        -0.2337
      7 C5          1.6074   -3.6680   -2.5737 C.2       1 <0>         0.2799
      8 N1          2.7131   -4.0190   -3.3143 N.pl3     1 <0>        -0.6250
      9 C6          2.9516   -3.4170   -4.5233 C.2       1 <0>         0.1961
     10 C7          2.3499   -2.2639   -4.8514 C.2       1 <0>        -0.1340
     11 C8          1.3963   -1.5769   -3.9191 C.3       1 <0>         0.0740
     12 C9          2.0857   -0.3879   -3.3008 C.ar      1 <0>        -0.0657
     13 C10         3.2174   -0.5697   -2.5282 C.ar      1 <0>        -0.0942
     14 C11         3.8498    0.5207   -1.9611 C.ar      1 <0>        -0.1170
     15 C12         3.3509    1.7938   -2.1662 C.ar      1 <0>        -0.1075
     16 C13         2.2196    1.9767   -2.9384 C.ar      1 <0>        -0.1115
     17 C14         1.5893    0.8860   -3.5111 C.ar      1 <0>        -0.0156
     18 Cl1         0.1719    1.1157   -4.4867 Cl        1 <0>        -0.0596
     19 C15         2.6210   -1.6750   -6.1283 C.1       1 <0>         0.2623
     20 N2          2.8361   -1.2079   -7.1412 N.1       1 <0>        -0.4171
     21 C16         3.9044   -4.0603   -5.4976 C.3       1 <0>        -0.1311
     22 C17         1.1368   -4.5574   -1.4926 C.ar      1 <0>        -0.0655
     23 C18         0.6400   -5.8271   -1.7951 C.ar      1 <0>        -0.0901
     24 C19         0.2026   -6.6527   -0.7803 C.ar      1 <0>        -0.1228
     25 C20         0.2547   -6.2253    0.5347 C.ar      1 <0>        -0.0999
     26 C21         0.7457   -4.9685    0.8416 C.ar      1 <0>        -0.1200
     27 C22         1.1918   -4.1347   -0.1626 C.ar      1 <0>        -0.0482
     28 H1         -1.6771    1.4351   -1.5100 H         1 <0>         0.0655
     29 H2         -2.7308    0.7553   -2.7733 H         1 <0>         0.0650
     30 H3         -3.3265    0.9045   -1.1026 H         1 <0>         0.0762
     31 H4         -1.6464   -0.7589   -0.3551 H         1 <0>         0.0636
     32 H5         -2.7001   -1.4387   -1.6183 H         1 <0>         0.0641
     33 H6          3.3251   -4.6934   -2.9804 H         1 <0>         0.4258
     34 H7          0.5270   -1.2343   -4.4804 H         1 <0>         0.1049
     35 H8          3.6074   -1.5639   -2.3673 H         1 <0>         0.1225
     36 H9          4.7338    0.3782   -1.3572 H         1 <0>         0.1271
     37 H10         3.8453    2.6453   -1.7225 H         1 <0>         0.1306
     38 H11         1.8298    2.9711   -3.0983 H         1 <0>         0.1327
     39 H12         4.2964   -4.9820   -5.0676 H         1 <0>         0.0827
     40 H13         3.3779   -4.2871   -6.4247 H         1 <0>         0.0937
     41 H14         4.7280   -3.3772   -5.7053 H         1 <0>         0.0927
     42 H15         0.5981   -6.1617   -2.8211 H         1 <0>         0.1216
     43 H16        -0.1818   -7.6348   -1.0128 H         1 <0>         0.1252
     44 H17        -0.0898   -6.8755    1.3253 H         1 <0>         0.1232
     45 H18         0.7832   -4.6411    1.8701 H         1 <0>         0.1244
     46 H19         1.5786   -3.1556    0.0786 H         1 <0>         0.1178
@<TRIPOS>BOND
     1    1    2 1
     2    1   28 1
     3    1   29 1
     4    1   30 1
     5    2    3 1
     6    2   31 1
     7    2   32 1
     8    3    4 1
     9    4    5 2
    10    4    6 1
    11    6   11 1
    12    6    7 2
    13    7    8 1
    14    7   22 1
    15    8    9 1
    16    8   33 1
    17    9   10 2
    18    9   21 1
    19   10   11 1
    20   10   19 1
    21   11   12 1
    22   11   34 1
    23   12   17 ar
    24   12   13 ar
    25   13   14 ar
    26   13   35 1
    27   14   15 ar
    28   14   36 1
    29   15   16 ar
    30   15   37 1
    31   16   17 ar
    32   16   38 1
    33   17   18 1
    34   19   20 3
    35   21   39 1
    36   21   40 1
    37   21   41 1
    38   22   27 ar
    39   22   23 ar
    40   23   24 ar
    41   23   42 1
    42   24   25 ar
    43   24   43 1
    44   25   26 ar
    45   25   44 1
    46   26   27 ar
    47   26   45 1
    48   27   46 1
@<TRIPOS>MOLECULE
CHEMBL1215482__1
   46    48     0     0     0
SMALL
USER_CHARGES

@<TRIPOS>ATOM
      1 C1          1.5082    1.4283    0.6354 C.3       1 <0>        -0.1503
      2 C2          1.3773   -0.0941    0.5572 C.3       1 <0>         0.0665
      3 O1          1.6403   -0.5268   -0.7791 O.3       1 <0>        -0.3404
      4 C3          1.5657   -1.8534   -1.0197 C.2       1 <0>         0.5164
      5 O2          1.2846   -2.6210   -0.1173 O.2       1 <0>        -0.5052
      6 C4          1.8130   -2.3491   -2.3142 C.2       1 <0>        -0.2340
      7 C5          1.6074   -3.6680   -2.5737 C.2       1 <0>         0.2799
      8 N1          1.8503   -4.1788   -3.8284 N.pl3     1 <0>        -0.6250
      9 C6          2.6249   -3.4797   -4.7185 C.2       1 <0>         0.1962
     10 C7          2.8668   -2.1718   -4.5450 C.2       1 <0>        -0.1343
     11 C8          2.2930   -1.4094   -3.3835 C.3       1 <0>         0.0741
     12 C9          1.1370   -0.5677   -3.8591 C.ar      1 <0>        -0.0657
     13 C10         0.0221   -1.1721   -4.4093 C.ar      1 <0>        -0.0942
     14 C11        -1.0383   -0.4003   -4.8456 C.ar      1 <0>        -0.1170
     15 C12        -0.9847    0.9766   -4.7319 C.ar      1 <0>        -0.1073
     16 C13         0.1293    1.5820   -4.1821 C.ar      1 <0>        -0.1115
     17 C14         1.1888    0.8095   -3.7399 C.ar      1 <0>        -0.0155
     18 Cl1         2.5857    1.5688   -3.0430 Cl        1 <0>        -0.0595
     19 C15         3.6888   -1.4832   -5.4941 C.1       1 <0>         0.2624
     20 N2          4.3409   -0.9369   -6.2470 N.1       1 <0>        -0.4172
     21 C16         3.2136   -4.1917   -5.9090 C.3       1 <0>        -0.1312
     22 C17         1.1204   -4.5589   -1.5012 C.ar      1 <0>        -0.0653
     23 C18        -0.1580   -4.3809   -0.9678 C.ar      1 <0>        -0.0485
     24 C19        -0.6066   -5.2169    0.0334 C.ar      1 <0>        -0.1201
     25 C20         0.2070   -6.2299    0.5096 C.ar      1 <0>        -0.0999
     26 C21         1.4747   -6.4121   -0.0143 C.ar      1 <0>        -0.1226
     27 C22         1.9339   -5.5870   -1.0198 C.ar      1 <0>        -0.0901
     28 H1          2.5188    1.7212    0.3509 H         1 <0>         0.0650
     29 H2          0.7914    1.8899   -0.0437 H         1 <0>         0.0655
     30 H3          1.3076    1.7584    1.6546 H         1 <0>         0.0762
     31 H4          2.0942   -0.5557    1.2363 H         1 <0>         0.0641
     32 H5          0.3667   -0.3870    0.8417 H         1 <0>         0.0636
     33 H6          1.4731   -5.0352   -4.0837 H         1 <0>         0.4258
     34 H7          3.0629   -0.7583   -2.9694 H         1 <0>         0.1048
     35 H8         -0.0202   -2.2476   -4.4987 H         1 <0>         0.1224
     36 H9         -1.9089   -0.8729   -5.2757 H         1 <0>         0.1271
     37 H10        -1.8134    1.5792   -5.0733 H         1 <0>         0.1306
     38 H11         0.1712    2.6575   -4.0936 H         1 <0>         0.1327
     39 H12         2.9158   -5.2401   -5.8892 H         1 <0>         0.0827
     40 H13         2.8500   -3.7281   -6.8260 H         1 <0>         0.0927
     41 H14         4.3008   -4.1221   -5.8730 H         1 <0>         0.0937
     42 H15        -0.7937   -3.5902   -1.3380 H         1 <0>         0.1178
     43 H16        -1.5949   -5.0804    0.4468 H         1 <0>         0.1244
     44 H17        -0.1490   -6.8812    1.2941 H         1 <0>         0.1232
     45 H18         2.1045   -7.2045    0.3622 H         1 <0>         0.1252
     46 H19         2.9220   -5.7328   -1.4307 H         1 <0>         0.1216
@<TRIPOS>BOND
     1    1    2 1
     2    1   28 1
     3    1   29 1
     4    1   30 1
     5    2    3 1
     6    2   31 1
     7    2   32 1
     8    3    4 1
     9    4    5 2
    10    4    6 1
    11    6   11 1
    12    6    7 2
    13    7    8 1
    14    7   22 1
    15    8    9 1
    16    8   33 1
    17    9   10 2
    18    9   21 1
    19   10   11 1
    20   10   19 1
    21   11   12 1
    22   11   34 1
    23   12   17 ar
    24   12   13 ar
    25   13   14 ar
    26   13   35 1
    27   14   15 ar
    28   14   36 1
    29   15   16 ar
    30   15   37 1
    31   16   17 ar
    32   16   38 1
    33   17   18 1
    34   19   20 3
    35   21   39 1
    36   21   40 1
    37   21   41 1
    38   22   27 ar
    39   22   23 ar
    40   23   24 ar
    41   23   42 1
    42   24   25 ar
    43   24   43 1
    44   25   26 ar
    45   25   44 1
    46   26   27 ar
    47   26   45 1
    48   27   46 1
@<TRIPOS>MOLECULE
CHEMBL1215484
   46    48     0     0     0
SMALL
USER_CHARGES

@<TRIPOS>ATOM
      1 C1          0.0263    1.5037    0.0021 C.3       1 <0>        -0.1311
      2 C2          0.0238   -0.0033   -0.0009 C.2       1 <0>         0.2062
      3 C3         -1.1421   -0.6644    0.0660 C.2       1 <0>        -0.1433
      4 C4         -1.1936   -2.1658    0.0570 C.3       1 <0>         0.0822
      5 C5          0.1583   -2.7470    0.3595 C.2       1 <0>        -0.2222
      6 C6          1.2755   -2.0025    0.2810 C.2       1 <0>         0.2009
      7 N1          1.2135   -0.6830   -0.0776 N.pl3     1 <0>        -0.6284
      8 C7          2.6113   -2.6301    0.5857 C.3       1 <0>        -0.0567
      9 C8          3.3091   -2.9774   -0.7041 C.ar      1 <0>        -0.0943
     10 C9          3.1129   -4.2169   -1.2840 C.ar      1 <0>        -0.0998
     11 C10         3.7529   -4.5355   -2.4671 C.ar      1 <0>        -0.1128
     12 C11         4.5887   -3.6145   -3.0706 C.ar      1 <0>        -0.1145
     13 C12         4.7841   -2.3748   -2.4912 C.ar      1 <0>        -0.1181
     14 C13         4.1408   -2.0546   -1.3103 C.ar      1 <0>        -0.1162
     15 C14         0.2581   -4.1060    0.7352 C.2       1 <0>         0.5290
     16 O1          0.1951   -4.9777   -0.1117 O.2       1 <0>        -0.4815
     17 O2          0.4234   -4.4369    2.0331 O.3       1 <0>        -0.3527
     18 C15         0.5167   -5.8293    2.3409 C.3       1 <0>         0.0295
     19 C16        -1.6443   -2.6385   -1.3011 C.ar      1 <0>        -0.0667
     20 C17        -0.9018   -2.3242   -2.4240 C.ar      1 <0>        -0.0818
     21 C18        -1.3150   -2.7577   -3.6697 C.ar      1 <0>        -0.1138
     22 C19        -2.4711   -3.5060   -3.7935 C.ar      1 <0>        -0.1059
     23 C20        -3.2141   -3.8209   -2.6716 C.ar      1 <0>        -0.1090
     24 C21        -2.7979   -3.3920   -1.4236 C.ar      1 <0>        -0.0251
     25 Cl1        -3.7272   -3.7927   -0.0132 Cl        1 <0>        -0.0688
     26 C22        -2.3641    0.0777    0.1483 C.1       1 <0>         0.2644
     27 N2         -3.3334    0.6663    0.2136 N.1       1 <0>        -0.4197
     28 H1          1.0525    1.8654   -0.0622 H         1 <0>         0.0820
     29 H2         -0.5422    1.8696   -0.8530 H         1 <0>         0.0921
     30 H3         -0.4297    1.8660    0.9234 H         1 <0>         0.0941
     31 H4         -1.9063   -2.5048    0.8089 H         1 <0>         0.0980
     32 H5          2.0125   -0.2255   -0.3829 H         1 <0>         0.4213
     33 H6          3.2225   -1.9269    1.1515 H         1 <0>         0.1029
     34 H7          2.4617   -3.5359    1.1732 H         1 <0>         0.1018
     35 H8          2.4599   -4.9364   -0.8125 H         1 <0>         0.1257
     36 H9          3.6002   -5.5041   -2.9197 H         1 <0>         0.1240
     37 H10         5.0893   -3.8638   -3.9945 H         1 <0>         0.1232
     38 H11         5.4374   -1.6554   -2.9625 H         1 <0>         0.1240
     39 H12         4.2905   -1.0846   -0.8596 H         1 <0>         0.1205
     40 H13         0.6474   -5.9559    3.4156 H         1 <0>         0.1028
     41 H14        -0.3963   -6.3334    2.0241 H         1 <0>         0.0624
     42 H15         1.3701   -6.2606    1.8177 H         1 <0>         0.0606
     43 H16         0.0011   -1.7394   -2.3279 H         1 <0>         0.1234
     44 H17        -0.7349   -2.5116   -4.5467 H         1 <0>         0.1271
     45 H18        -2.7936   -3.8442   -4.7671 H         1 <0>         0.1312
     46 H19        -4.1173   -4.4051   -2.7685 H         1 <0>         0.1329
@<TRIPOS>BOND
     1    1    2 1
     2    1   28 1
     3    1   29 1
     4    1   30 1
     5    2    7 1
     6    2    3 2
     7    3    4 1
     8    3   26 1
     9    4    5 1
    10    4   19 1
    11    4   31 1
    12    5    6 2
    13    5   15 1
    14    6    7 1
    15    6    8 1
    16    7   32 1
    17    8    9 1
    18    8   33 1
    19    8   34 1
    20    9   14 ar
    21    9   10 ar
    22   10   11 ar
    23   10   35 1
    24   11   12 ar
    25   11   36 1
    26   12   13 ar
    27   12   37 1
    28   13   14 ar
    29   13   38 1
    30   14   39 1
    31   15   16 2
    32   15   17 1
    33   17   18 1
    34   18   40 1
    35   18   41 1
    36   18   42 1
    37   19   24 ar
    38   19   20 ar
    39   20   21 ar
    40   20   43 1
    41   21   22 ar
    42   21   44 1
    43   22   23 ar
    44   22   45 1
    45   23   24 ar
    46   23   46 1
    47   24   25 1
    48   26   27 3
@<TRIPOS>MOLECULE
CHEMBL1215484__1
   46    48     0     0     0
SMALL
USER_CHARGES

@<TRIPOS>ATOM
      1 C1         -0.1057    1.4992   -0.0151 C.3       1 <0>        -0.1308
      2 C2         -0.0403   -0.0063   -0.0095 C.2       1 <0>         0.2065
      3 C3         -1.1757   -0.7189    0.0525 C.2       1 <0>        -0.1424
      4 C4         -1.1587   -2.2210    0.0695 C.3       1 <0>         0.0821
      5 C5          0.1768   -2.7437   -0.3778 C.2       1 <0>        -0.2248
      6 C6          1.2617   -1.9501   -0.4222 C.2       1 <0>         0.2025
      7 N1          1.1793   -0.6322   -0.0733 N.pl3     1 <0>        -0.6271
      8 C7          2.5835   -2.5202   -0.8682 C.3       1 <0>        -0.0559
      9 C8          2.8351   -2.1410   -2.3048 C.ar      1 <0>        -0.0939
     10 C9          2.3931   -2.9632   -3.3243 C.ar      1 <0>        -0.1022
     11 C10         2.6239   -2.6153   -4.6421 C.ar      1 <0>        -0.1142
     12 C11         3.2964   -1.4450   -4.9404 C.ar      1 <0>        -0.1143
     13 C12         3.7377   -0.6223   -3.9208 C.ar      1 <0>        -0.1193
     14 C13         3.5031   -0.9680   -2.6032 C.ar      1 <0>        -0.1108
     15 C14         0.2959   -4.0993   -0.7600 C.2       1 <0>         0.5325
     16 O1         -0.0958   -4.4597   -1.8544 O.2       1 <0>        -0.4902
     17 O2          0.8440   -4.9941    0.0889 O.3       1 <0>        -0.3474
     18 C15         0.9327   -6.3469   -0.3629 C.3       1 <0>         0.0292
     19 C16        -1.4369   -2.7044    1.4695 C.ar      1 <0>        -0.0736
     20 C17        -0.5977   -2.3407    2.5060 C.ar      1 <0>        -0.0839
     21 C18        -0.8527   -2.7839    3.7901 C.ar      1 <0>        -0.1136
     22 C19        -1.9473   -3.5913    4.0388 C.ar      1 <0>        -0.1055
     23 C20        -2.7870   -3.9555    3.0034 C.ar      1 <0>        -0.1089
     24 C21        -2.5354   -3.5074    1.7186 C.ar      1 <0>        -0.0299
     25 Cl1        -3.5934   -3.9592    0.4186 Cl        1 <0>        -0.0646
     26 C22        -2.4314   -0.0323    0.1039 C.1       1 <0>         0.2643
     27 N2         -3.4274    0.5124    0.1448 N.1       1 <0>        -0.4201
     28 H1          0.9036    1.9065   -0.0737 H         1 <0>         0.0820
     29 H2         -0.6834    1.8346   -0.8765 H         1 <0>         0.0929
     30 H3         -0.5847    1.8456    0.9007 H         1 <0>         0.0922
     31 H4         -1.9332   -2.5962   -0.5994 H         1 <0>         0.1003
     32 H5          1.9876   -0.1377    0.1343 H         1 <0>         0.4219
     33 H6          3.3812   -2.1209   -0.2419 H         1 <0>         0.1015
     34 H7          2.5597   -3.6062   -0.7779 H         1 <0>         0.1018
     35 H8          1.8677   -3.8775   -3.0913 H         1 <0>         0.1251
     36 H9          2.2792   -3.2580   -5.4386 H         1 <0>         0.1245
     37 H10         3.4774   -1.1735   -5.9699 H         1 <0>         0.1235
     38 H11         4.2634    0.2919   -4.1539 H         1 <0>         0.1238
     39 H12         3.8445   -0.3235   -1.8067 H         1 <0>         0.1203
     40 H13         1.3911   -6.9598    0.4132 H         1 <0>         0.1028
     41 H14        -0.0667   -6.7236   -0.5804 H         1 <0>         0.0621
     42 H15         1.5415   -6.3891   -1.2661 H         1 <0>         0.0605
     43 H16         0.2577   -1.7104    2.3124 H         1 <0>         0.1263
     44 H17        -0.1966   -2.4998    4.5996 H         1 <0>         0.1292
     45 H18        -2.1459   -3.9376    5.0423 H         1 <0>         0.1321
     46 H19        -3.6417   -4.5864    3.1977 H         1 <0>         0.1337
@<TRIPOS>BOND
     1    1    2 1
     2    1   28 1
     3    1   29 1
     4    1   30 1
     5    2    7 1
     6    2    3 2
     7    3    4 1
     8    3   26 1
     9    4    5 1
    10    4   19 1
    11    4   31 1
    12    5    6 2
    13    5   15 1
    14    6    7 1
    15    6    8 1
    16    7   32 1
    17    8    9 1
    18    8   33 1
    19    8   34 1
    20    9   14 ar
    21    9   10 ar
    22   10   11 ar
    23   10   35 1
    24   11   12 ar
    25   11   36 1
    26   12   13 ar
    27   12   37 1
    28   13   14 ar
    29   13   38 1
    30   14   39 1
    31   15   16 2
    32   15   17 1
    33   17   18 1
    34   18   40 1
    35   18   41 1
    36   18   42 1
    37   19   24 ar
    38   19   20 ar
    39   20   21 ar
    40   20   43 1
    41   21   22 ar
    42   21   44 1
    43   22   23 ar
    44   22   45 1
    45   23   24 ar
    46   23   46 1
    47   24   25 1
    48   26   27 3
@<TRIPOS>MOLECULE
CHEMBL194745
   50    52     0     0     0
SMALL
USER_CHARGES

@<TRIPOS>ATOM
      1 C1          0.8283    0.0027    0.5675 C.3       1 <0>        -0.1527
      2 C2         -0.3109   -0.2556   -0.4205 C.3       1 <0>        -0.0212
      3 C3          0.0472   -1.4467   -1.3117 C.3       1 <0>        -0.1362
      4 C4         -1.5953   -0.5642    0.3514 C.3       1 <0>        -0.1400
      5 C5         -1.6381    0.2783    1.6278 C.3       1 <0>         0.0858
      6 C6         -2.8279   -0.1284    2.4585 C.2       1 <0>         0.4904
      7 O1         -3.7930   -0.6361    1.9278 O.2       1 <0>        -0.4760
      8 N1         -2.8194    0.0720    3.7913 N.am      1 <0>        -0.6563
      9 C7         -3.8658   -0.4113    4.5756 C.ar      1 <0>         0.1860
     10 C8         -4.4934   -1.6064    4.2369 C.ar      1 <0>        -0.1293
     11 C9         -5.5273   -2.0891    5.0072 C.ar      1 <0>        -0.0080
     12 C10        -5.9476   -1.3759    6.1329 C.ar      1 <0>        -0.2094
     13 C11        -5.3117   -0.1746    6.4676 C.ar      1 <0>        -0.0792
     14 C12        -4.2779    0.2997    5.7000 C.ar      1 <0>        -0.1215
     15 C13        -5.9954    0.3289    7.7135 C.3       1 <0>         0.0911
     16 O2         -7.0094   -0.6252    8.0402 O.3       1 <0>        -0.3133
     17 C14        -6.9967   -1.6193    7.1363 C.2       1 <0>         0.5232
     18 O3         -7.7420   -2.5789    7.1459 O.2       1 <0>        -0.4468
     19 C15        -1.7562    1.7583    1.2582 C.3       1 <0>         0.4692
     20 F1         -2.8540    1.9412    0.4106 F         1 <0>        -0.1594
     21 F2         -1.9330    2.5166    2.4205 F         1 <0>        -0.1754
     22 F3         -0.5894    2.1705    0.6056 F         1 <0>        -0.1380
     23 O4         -0.4397    0.0687    2.3774 O.3       1 <0>        -0.5144
     24 C16        -0.5206    0.9669   -1.2763 C.ar      1 <0>        -0.0610
     25 C17        -1.7900    1.2972   -1.7106 C.ar      1 <0>        -0.1600
     26 C18        -1.9830    2.4204   -2.4964 C.ar      1 <0>         0.1011
     27 C19        -0.9045    3.2143   -2.8486 C.ar      1 <0>        -0.1460
     28 C20         0.3657    2.8864   -2.4159 C.ar      1 <0>        -0.1115
     29 C21         0.5597    1.7642   -1.6236 C.ar      1 <0>         0.1059
     30 O5          1.8085    1.4436   -1.1924 O.3       1 <0>        -0.4808
     31 F4         -3.2248    2.7422   -2.9203 F         1 <0>        -0.1360
     32 H1          1.7747    0.0435    0.0283 H         1 <0>         0.0726
     33 H2          0.6593    0.9514    1.0770 H         1 <0>         0.0924
     34 H3          0.8626   -0.8027    1.3012 H         1 <0>         0.0527
     35 H4          0.1131   -2.3487   -0.7033 H         1 <0>         0.0653
     36 H5         -0.7234   -1.5765   -2.0716 H         1 <0>         0.0593
     37 H6          1.0068   -1.2634   -1.7949 H         1 <0>         0.0623
     38 H7         -2.4587   -0.3265   -0.2700 H         1 <0>         0.1068
     39 H8         -1.6165   -1.6220    0.6134 H         1 <0>         0.1029
     40 H9         -2.0852    0.5525    4.2048 H         1 <0>         0.4243
     41 H10        -4.1684   -2.1570    3.3665 H         1 <0>         0.1473
     42 H11        -6.0127   -3.0167    4.7418 H         1 <0>         0.1443
     43 H12        -3.7873    1.2247    5.9651 H         1 <0>         0.1432
     44 H13        -5.2764    0.4032    8.5294 H         1 <0>         0.1203
     45 H14        -6.4467    1.3028    7.5237 H         1 <0>         0.1198
     46 H15        -0.2995   -0.8496    2.6462 H         1 <0>         0.3990
     47 H16        -2.6320    0.6786   -1.4372 H         1 <0>         0.1436
     48 H17        -1.0563    4.0899   -3.4623 H         1 <0>         0.1390
     49 H18         1.2067    3.5055   -2.6911 H         1 <0>         0.1391
     50 H19         2.2956    0.8639   -1.7939 H         1 <0>         0.3855
@<TRIPOS>BOND
     1    1    2 1
     2    1   32 1
     3    1   33 1
     4    1   34 1
     5    2    3 1
     6    2    4 1
     7    2   24 1
     8    3   35 1
     9    3   36 1
    10    3   37 1
    11    4    5 1
    12    4   38 1
    13    4   39 1
    14    5    6 1
    15    5   19 1
    16    5   23 1
    17    6    7 2
    18    6    8 am
    19    8    9 1
    20    8   40 1
    21    9   14 ar
    22    9   10 ar
    23   10   11 ar
    24   10   41 1
    25   11   12 ar
    26   11   42 1
    27   12   17 1
    28   12   13 ar
    29   13   14 ar
    30   13   15 1
    31   14   43 1
    32   15   16 1
    33   15   44 1
    34   15   45 1
    35   16   17 1
    36   17   18 2
    37   19   20 1
    38   19   21 1
    39   19   22 1
    40   23   46 1
    41   24   29 ar
    42   24   25 ar
    43   25   26 ar
    44   25   47 1
    45   26   27 ar
    46   26   31 1
    47   27   28 ar
    48   27   48 1
    49   28   29 ar
    50   28   49 1
    51   29   30 1
    52   30   50 1
@<TRIPOS>MOLECULE
CHEMBL194745__1
   50    52     0     0     0
SMALL
USER_CHARGES

@<TRIPOS>ATOM
      1 C1          0.2382    0.3718   -1.4975 C.3       1 <0>        -0.1375
      2 C2         -0.1191    0.5431   -0.0197 C.3       1 <0>        -0.0164
      3 C3         -0.2409    2.0331    0.3061 C.3       1 <0>        -0.1667
      4 C4         -1.4515   -0.1522    0.2669 C.3       1 <0>        -0.1446
      5 C5         -2.1583    0.5568    1.4239 C.3       1 <0>         0.0854
      6 C6         -3.5207   -0.0533    1.6297 C.2       1 <0>         0.4898
      7 O1         -3.7329   -1.1951    1.2804 O.2       1 <0>        -0.4736
      8 N1         -4.5035    0.6699    2.2021 N.am      1 <0>        -0.6567
      9 C7         -5.7289    0.0727    2.4941 C.ar      1 <0>         0.1846
     10 C8         -5.7745   -1.2581    2.8990 C.ar      1 <0>        -0.1276
     11 C9         -6.9813   -1.8538    3.1887 C.ar      1 <0>        -0.0076
     12 C10        -8.1644   -1.1189    3.0757 C.ar      1 <0>        -0.2079
     13 C11        -8.1111    0.2191    2.6679 C.ar      1 <0>        -0.0806
     14 C12        -6.9054    0.8102    2.3856 C.ar      1 <0>        -0.1207
     15 C13        -9.5367    0.7097    2.6514 C.3       1 <0>         0.0917
     16 O2        -10.3548   -0.3906    3.0580 O.3       1 <0>        -0.3135
     17 C14        -9.5778   -1.4580    3.3079 C.2       1 <0>         0.5230
     18 O3         -9.9827   -2.5440    3.6725 O.2       1 <0>        -0.4457
     19 C15        -1.3304    0.3988    2.7008 C.3       1 <0>         0.4719
     20 F1         -0.0520    0.9289    2.4964 F         1 <0>        -0.1413
     21 F2         -1.9561    1.0813    3.7496 F         1 <0>        -0.1694
     22 F3         -1.2263   -0.9584    3.0241 F         1 <0>        -0.1581
     23 O4         -2.2996    1.9452    1.1166 O.3       1 <0>        -0.5168
     24 C16         0.9614   -0.0708    0.8328 C.ar      1 <0>        -0.0466
     25 C17         0.6955   -1.2061    1.5741 C.ar      1 <0>        -0.1836
     26 C18         1.6880   -1.7706    2.3569 C.ar      1 <0>         0.1054
     27 C19         2.9482   -1.1982    2.3985 C.ar      1 <0>        -0.1492
     28 C20         3.2168   -0.0632    1.6584 C.ar      1 <0>        -0.1060
     29 C21         2.2248    0.5002    0.8691 C.ar      1 <0>         0.0959
     30 O5          2.4894    1.6140    0.1358 O.3       1 <0>        -0.4877
     31 F4          1.4267   -2.8806    3.0812 F         1 <0>        -0.1354
     32 H1          1.1404    0.9408   -1.7215 H         1 <0>         0.0770
     33 H2          0.4120   -0.6832   -1.7093 H         1 <0>         0.0565
     34 H3         -0.5834    0.7357   -2.1145 H         1 <0>         0.0606
     35 H4         -1.0649    2.4633   -0.2631 H         1 <0>         0.0666
     36 H5         -0.4316    2.1575    1.3721 H         1 <0>         0.0942
     37 H6          0.6871    2.5399    0.0415 H         1 <0>         0.0585
     38 H7         -2.0807   -0.1124   -0.6223 H         1 <0>         0.1049
     39 H8         -1.2680   -1.1924    0.5359 H         1 <0>         0.1091
     40 H9         -4.3582    1.6059    2.4110 H         1 <0>         0.4241
     41 H10        -4.8597   -1.8257    2.9858 H         1 <0>         0.1471
     42 H11        -7.0136   -2.8867    3.5023 H         1 <0>         0.1449
     43 H12        -6.8690    1.8442    2.0760 H         1 <0>         0.1431
     44 H13        -9.6538    1.5393    3.3487 H         1 <0>         0.1200
     45 H14        -9.8106    1.0263    1.6450 H         1 <0>         0.1194
     46 H15        -2.8146    2.1207    0.3172 H         1 <0>         0.3994
     47 H16        -0.2871   -1.6531    1.5431 H         1 <0>         0.1536
     48 H17         3.7214   -1.6392    3.0102 H         1 <0>         0.1393
     49 H18         4.1997    0.3832    1.6914 H         1 <0>         0.1394
     50 H19         2.3174    2.4427    0.6034 H         1 <0>         0.3880
@<TRIPOS>BOND
     1    1    2 1
     2    1   32 1
     3    1   33 1
     4    1   34 1
     5    2    3 1
     6    2    4 1
     7    2   24 1
     8    3   35 1
     9    3   36 1
    10    3   37 1
    11    4    5 1
    12    4   38 1
    13    4   39 1
    14    5    6 1
    15    5   19 1
    16    5   23 1
    17    6    7 2
    18    6    8 am
    19    8    9 1
    20    8   40 1
    21    9   14 ar
    22    9   10 ar
    23   10   11 ar
    24   10   41 1
    25   11   12 ar
    26   11   42 1
    27   12   17 1
    28   12   13 ar
    29   13   14 ar
    30   13   15 1
    31   14   43 1
    32   15   16 1
    33   15   44 1
    34   15   45 1
    35   16   17 1
    36   17   18 2
    37   19   20 1
    38   19   21 1
    39   19   22 1
    40   23   46 1
    41   24   29 ar
    42   24   25 ar
    43   25   26 ar
    44   25   47 1
    45   26   27 ar
    46   26   31 1
    47   27   28 ar
    48   27   48 1
    49   28   29 ar
    50   28   49 1
    51   29   30 1
    52   30   50 1
@<TRIPOS>MOLECULE
CHEMBL1215197
   54    57     0     0     0
SMALL
USER_CHARGES

@<TRIPOS>ATOM
      1 C1          1.8368    1.0566   -0.1915 C.3       1 <0>        -0.1468
      2 C2          1.5102   -0.4379   -0.1661 C.3       1 <0>         0.0459
      3 O1          2.1802   -1.0903   -1.2467 O.3       1 <0>        -0.2627
      4 C3          1.9949   -2.4284   -1.3680 C.ar      1 <0>         0.1540
      5 C4          1.1832   -3.1009   -0.4731 C.ar      1 <0>        -0.1868
      6 C5          0.9972   -4.4791   -0.6043 C.ar      1 <0>        -0.0199
      7 C6          1.6314   -5.1784   -1.6399 C.ar      1 <0>        -0.1397
      8 C7          2.4323   -4.5198   -2.5243 C.ar      1 <0>        -0.0547
      9 C8          2.6226   -3.1365   -2.4073 C.ar      1 <0>        -0.1408
     10 C9          3.4816   -2.4286   -3.3656 C.2       1 <0>         0.5182
     11 O2          4.0277   -3.0461   -4.2702 O.co2     1 <0>        -0.6927
     12 O3          3.6512   -1.2211   -3.2595 O.co2     1 <0>        -0.6635
     13 C10         0.1341   -5.1980    0.3469 C.2       1 <0>         0.1526
     14 N1         -0.5010   -4.6576    1.3315 N.2       1 <0>        -0.2472
     15 N2         -1.2516   -5.5570    2.0859 N.pl3     1 <0>        -0.4601
     16 C11        -1.0926   -6.9047    1.5168 C.3       1 <0>         0.1168
     17 H1         -0.6403   -7.5776    2.2453 H         1 <0>         0.0924
     18 C12        -0.1502   -6.6827    0.3173 C.3       1 <0>        -0.1307
     19 C13        -2.4411   -7.4524    1.0451 C.3       1 <0>        -0.1035
     20 C14        -2.2495   -8.8356    0.3896 C.3       1 <0>        -0.1193
     21 C15        -3.2602   -8.8429   -0.7841 C.3       1 <0>        -0.1231
     22 C16        -3.1833   -7.3882   -1.3105 C.3       1 <0>        -0.1267
     23 C17        -3.0348   -6.5321   -0.0358 C.3       1 <0>        -0.1204
     24 C18        -2.0251   -5.2338    3.1957 C.ar      1 <0>         0.2901
     25 C19        -2.6032   -6.2459    3.9583 C.ar      1 <0>        -0.1904
     26 C20        -3.3687   -5.9304    5.0572 C.ar      1 <0>        -0.0099
     27 C21        -3.5665   -4.5914    5.4091 C.ar      1 <0>        -0.0853
     28 C22        -2.9845   -3.5764    4.6413 C.ar      1 <0>         0.0520
     29 C23        -2.2147   -3.9001    3.5450 C.ar      1 <0>        -0.1631
     30 Cl1        -3.2265   -1.9125    5.0731 Cl        1 <0>        -0.0497
     31 C24        -4.3630   -4.2597    6.5519 C.1       1 <0>         0.2605
     32 N3         -4.9948   -3.9966    7.4586 N.1       1 <0>        -0.4187
     33 H2          2.9131    1.1951   -0.0884 H         1 <0>         0.0665
     34 H3          1.5042    1.4852   -1.1369 H         1 <0>         0.0664
     35 H4          1.3258    1.5542    0.6328 H         1 <0>         0.0689
     36 H5          1.8428   -0.8665    0.7793 H         1 <0>         0.0534
     37 H6          0.4340   -0.5764   -0.2692 H         1 <0>         0.0533
     38 H7          0.6946   -2.5622    0.3253 H         1 <0>         0.1303
     39 H8          1.4851   -6.2440   -1.7375 H         1 <0>         0.1205
     40 H9          2.9184   -5.0649   -3.3199 H         1 <0>         0.1386
     41 H10        -0.6429   -6.9591   -0.6149 H         1 <0>         0.1119
     42 H11         0.7708   -7.2510    0.4472 H         1 <0>         0.1043
     43 H12        -3.1279   -7.5297    1.8880 H         1 <0>         0.0840
     44 H13        -1.2310   -8.9433    0.0167 H         1 <0>         0.0729
     45 H14        -2.4830   -9.6296    1.0990 H         1 <0>         0.0685
     46 H15        -2.9519   -9.5494   -1.5549 H         1 <0>         0.0683
     47 H16        -4.2644   -9.0722   -0.4278 H         1 <0>         0.0663
     48 H17        -2.3155   -7.2622   -1.9579 H         1 <0>         0.0683
     49 H18        -4.0982   -7.1259   -1.8418 H         1 <0>         0.0655
     50 H19        -4.0100   -6.1635    0.2821 H         1 <0>         0.0629
     51 H20        -2.3622   -5.6953   -0.2243 H         1 <0>         0.0674
     52 H21        -2.4508   -7.2799    3.6864 H         1 <0>         0.1397
     53 H22        -3.8167   -6.7161    5.6474 H         1 <0>         0.1436
     54 H23        -1.7613   -3.1179    2.9542 H         1 <0>         0.1517
@<TRIPOS>BOND
     1    1    2 1
     2    1   33 1
     3    1   34 1
     4    1   35 1
     5    2    3 1
     6    2   36 1
     7    2   37 1
     8    3    4 1
     9    4    9 ar
    10    4    5 ar
    11    5    6 ar
    12    5   38 1
    13    6    7 ar
    14    6   13 1
    15    7    8 ar
    16    7   39 1
    17    8    9 ar
    18    8   40 1
    19    9   10 1
    20   10   11 2
    21   10   12 1
    22   13   18 1
    23   13   14 2
    24   14   15 1
    25   15   16 1
    26   15   24 1
    27   16   17 1
    28   16   18 1
    29   16   19 1
    30   18   41 1
    31   18   42 1
    32   19   23 1
    33   19   20 1
    34   19   43 1
    35   20   21 1
    36   20   44 1
    37   20   45 1
    38   21   22 1
    39   21   46 1
    40   21   47 1
    41   22   23 1
    42   22   48 1
    43   22   49 1
    44   23   50 1
    45   23   51 1
    46   24   29 ar
    47   24   25 ar
    48   25   26 ar
    49   25   52 1
    50   26   27 ar
    51   26   53 1
    52   27   28 ar
    53   27   31 1
    54   28   29 ar
    55   28   30 1
    56   29   54 1
    57   31   32 3
@<TRIPOS>MOLECULE
CHEMBL384467
   57    60     0     0     0
SMALL
USER_CHARGES

@<TRIPOS>ATOM
      1 C1          1.7167    1.2309    1.5187 C.3       1 <0>        -0.1455
      2 C2          1.3454   -0.1868    1.0794 C.3       1 <0>        -0.1160
      3 H1          2.1316   -0.6004    0.4477 H         1 <0>         0.0891
      4 C3         -0.0035   -0.1703    0.3097 C.3       1 <0>        -0.1065
      5 C4         -1.0253   -0.5076    1.4012 C.3       1 <0>        -0.0810
      6 H2         -1.1939    0.3572    2.0429 H         1 <0>         0.0898
      7 C5         -2.3489   -1.0698    0.9157 C.3       1 <0>        -0.1006
      8 H3         -2.1727   -1.9725    0.3308 H         1 <0>         0.1130
      9 C6         -3.0706   -0.0302    0.0559 C.3       1 <0>        -0.1154
     10 C7         -4.3873   -0.6154   -0.4645 C.3       1 <0>        -0.0951
     11 C8         -5.1933   -1.0974    0.7271 C.2       1 <0>        -0.0294
     12 C9         -6.4507   -0.6977    0.8564 C.2       1 <0>        -0.2208
     13 C10        -7.2574   -1.1277    2.0090 C.2       1 <0>         0.4077
     14 O1         -8.4233   -0.7949    2.1114 O.2       1 <0>        -0.4562
     15 C11        -6.6219   -1.9706    3.0360 C.2       1 <0>        -0.2091
     16 C12        -5.3670   -2.3631    2.8829 C.2       1 <0>        -0.0691
     17 C13        -4.5212   -2.0131    1.7070 C.3       1 <0>        -0.0316
     18 C14        -3.1875   -1.4118    2.1576 C.3       1 <0>         0.1617
     19 C15        -2.4590   -2.3846    3.0797 C.3       1 <0>         0.0883
     20 H4         -3.0477   -2.5237    3.9864 H         1 <0>         0.0725
     21 C16        -1.0633   -1.8673    3.4626 C.3       1 <0>        -0.1275
     22 C17        -0.2906   -1.6287    2.1842 C.3       1 <0>        -0.0389
     23 C18         1.1308   -1.0889    2.3202 C.3       1 <0>         0.1101
     24 C19         2.1234   -2.2228    2.3194 C.2       1 <0>         0.3354
     25 O2          2.5416   -2.6584    1.2736 O.2       1 <0>        -0.4125
     26 C20         2.5942   -2.8131    3.6236 C.3       1 <0>         0.0292
     27 O3          3.5247   -3.8656    3.3618 O.3       1 <0>        -0.5557
     28 O4          1.2564   -0.3206    3.5186 O.3       1 <0>        -0.5365
     29 C21        -0.2826   -2.9176    1.3599 C.3       1 <0>        -0.1713
     30 O5         -2.3223   -3.6426    2.4156 O.3       1 <0>        -0.5409
     31 F1         -3.4514   -0.2383    2.8722 F         1 <0>        -0.1921
     32 C22        -4.1781   -3.3115    0.9740 C.3       1 <0>        -0.1371
     33 H5          2.6440    1.2029    2.0910 H         1 <0>         0.0522
     34 H6          1.8515    1.8603    0.6390 H         1 <0>         0.0629
     35 H7          0.9191    1.6397    2.1391 H         1 <0>         0.0692
     36 H8         -0.1972    0.8177   -0.1080 H         1 <0>         0.0758
     37 H9         -0.0104   -0.9291   -0.4728 H         1 <0>         0.0749
     38 H10        -3.2795    0.8552    0.6564 H         1 <0>         0.0744
     39 H11        -2.4377    0.2454   -0.7876 H         1 <0>         0.0816
     40 H12        -4.9453    0.1528   -0.9998 H         1 <0>         0.0846
     41 H13        -4.1799   -1.4524   -1.1313 H         1 <0>         0.0881
     42 H14        -6.8864   -0.0507    0.1094 H         1 <0>         0.1389
     43 H15        -7.1785   -2.2675    3.9126 H         1 <0>         0.1407
     44 H16        -4.9291   -2.9744    3.6581 H         1 <0>         0.1272
     45 H17        -1.1524   -0.9285    4.0092 H         1 <0>         0.0906
     46 H18        -0.5482   -2.6072    4.0751 H         1 <0>         0.0741
     47 H19         3.0790   -2.0392    4.2187 H         1 <0>         0.0812
     48 H20         1.7401   -3.2112    4.1715 H         1 <0>         0.0812
     49 H21         3.8701   -4.2922    4.1579 H         1 <0>         0.3864
     50 H22         2.1272    0.0825    3.6379 H         1 <0>         0.3793
     51 H23         0.3951   -2.8035    0.5138 H         1 <0>         0.0588
     52 H24         0.0519   -3.7461    1.9842 H         1 <0>         0.0516
     53 H25        -1.2891   -3.1213    0.9944 H         1 <0>         0.1113
     54 H26        -1.8675   -4.3164    2.9393 H         1 <0>         0.3771
     55 H27        -3.2905   -3.1585    0.3600 H         1 <0>         0.0769
     56 H28        -3.9848   -4.0995    1.7019 H         1 <0>         0.0989
     57 H29        -5.0143   -3.6016    0.3379 H         1 <0>         0.0541
@<TRIPOS>BOND
     1    1    2 1
     2    1   33 1
     3    1   34 1
     4    1   35 1
     5    2    3 1
     6    2   23 1
     7    2    4 1
     8    4    5 1
     9    4   36 1
    10    4   37 1
    11    5    6 1
    12    5   22 1
    13    5    7 1
    14    7    8 1
    15    7   18 1
    16    7    9 1
    17    9   10 1
    18    9   38 1
    19    9   39 1
    20   10   11 1
    21   10   40 1
    22   10   41 1
    23   11   17 1
    24   11   12 2
    25   12   13 1
    26   12   42 1
    27   13   14 2
    28   13   15 1
    29   15   16 2
    30   15   43 1
    31   16   17 1
    32   16   44 1
    33   17   18 1
    34   17   32 1
    35   18   19 1
    36   18   31 1
    37   19   20 1
    38   19   21 1
    39   19   30 1
    40   21   22 1
    41   21   45 1
    42   21   46 1
    43   22   23 1
    44   22   29 1
    45   23   24 1
    46   23   28 1
    47   24   25 2
    48   24   26 1
    49   26   27 1
    50   26   47 1
    51   26   48 1
    52   27   49 1
    53   28   50 1
    54   29   51 1
    55   29   52 1
    56   29   53 1
    57   30   54 1
    58   32   55 1
    59   32   56 1
    60   32   57 1
@<TRIPOS>MOLECULE
CHEMBL219561
   57    59     0     0     0
SMALL
USER_CHARGES

@<TRIPOS>ATOM
      1 C1          3.0971    1.6369    3.0704 C.3       1 <0>        -0.1256
      2 C2          3.0776    0.4090    3.9439 C.ar      1 <0>        -0.1082
      3 C3          4.1896    0.0801    4.6972 C.ar      1 <0>        -0.0657
      4 C4          4.1745   -1.0450    5.4982 C.ar      1 <0>        -0.2078
      5 C5          3.0420   -1.8453    5.5470 C.ar      1 <0>         0.1306
      6 C6          1.9277   -1.5130    4.7908 C.ar      1 <0>        -0.2002
      7 C7          1.9461   -0.3836    3.9950 C.ar      1 <0>        -0.0287
      8 C8          0.7338   -0.0188    3.1775 C.3       1 <0>        -0.0091
      9 C9          0.4513    1.4778    3.3241 C.3       1 <0>        -0.1774
     10 C10         0.9935   -0.3470    1.7059 C.3       1 <0>        -0.1458
     11 C11        -0.4742   -0.8167    3.6725 C.3       1 <0>        -0.1441
     12 C12        -0.8371   -0.3664    5.0890 C.3       1 <0>         0.0796
     13 C13        -0.9108   -1.5867    6.0090 C.3       1 <0>         0.0485
     14 N1         -1.2530   -1.1550    7.3664 N.pl3     1 <0>        -0.4952
     15 C14        -0.2747   -0.6820    8.1758 C.2       1 <0>         0.1850
     16 C15        -0.5142   -0.2662    9.4367 C.2       1 <0>        -0.3103
     17 C16        -1.8267   -0.3142    9.9624 C.2       1 <0>         0.4186
     18 O1         -2.0641    0.0571   11.1001 O.2       1 <0>        -0.4971
     19 C17        -2.8975   -0.8271    9.0898 C.ar      1 <0>        -0.1956
     20 C18        -2.5619   -1.2346    7.7865 C.ar      1 <0>         0.2054
     21 C19        -3.5598   -1.7176    6.9455 C.ar      1 <0>        -0.1922
     22 C20        -4.8600   -1.7847    7.3971 C.ar      1 <0>        -0.0503
     23 C21        -5.1856   -1.3757    8.6826 C.ar      1 <0>        -0.1604
     24 C22        -4.2185   -0.9087    9.5290 C.ar      1 <0>        -0.0277
     25 C23        -2.1946    0.3390    5.0679 C.3       1 <0>         0.4663
     26 F1         -3.1668   -0.5353    4.5704 F         1 <0>        -0.1726
     27 F2         -2.5382    0.7281    6.3670 F         1 <0>        -0.1620
     28 F3         -2.1200    1.4694    4.2469 F         1 <0>        -0.1646
     29 O2          0.1607    0.5351    5.5726 O.3       1 <0>        -0.5216
     30 O3          3.0247   -2.9531    6.3340 O.3       1 <0>        -0.3175
     31 C24         4.2078   -3.2341    7.0847 C.3       1 <0>         0.0257
     32 H1          2.6228    2.4650    3.5970 H         1 <0>         0.0779
     33 H2          4.1286    1.8991    2.8351 H         1 <0>         0.0606
     34 H3          2.5540    1.4347    2.1472 H         1 <0>         0.0804
     35 H4          5.0709    0.7033    4.6589 H         1 <0>         0.1290
     36 H5          5.0435   -1.3019    6.0859 H         1 <0>         0.1313
     37 H6          1.0450   -2.1343    4.8270 H         1 <0>         0.1362
     38 H7          1.0780    2.0357    2.6283 H         1 <0>         0.0654
     39 H8         -0.5983    1.6726    3.1040 H         1 <0>         0.0682
     40 H9          0.6729    1.7911    4.3443 H         1 <0>         0.0931
     41 H10         1.2980   -1.3896    1.6144 H         1 <0>         0.0592
     42 H11         0.0822   -0.1829    1.1307 H         1 <0>         0.0649
     43 H12         1.7852    0.2976    1.3240 H         1 <0>         0.0699
     44 H13        -1.3208   -0.6438    3.0082 H         1 <0>         0.0939
     45 H14        -0.2295   -1.8789    3.6804 H         1 <0>         0.0944
     46 H15        -1.6746   -2.2725    5.6424 H         1 <0>         0.1211
     47 H16         0.0552   -2.0916    6.0209 H         1 <0>         0.1268
     48 H17         0.7357   -0.6363    7.7971 H         1 <0>         0.1521
     49 H18         0.2973    0.1035   10.0459 H         1 <0>         0.1500
     50 H19        -3.3165   -2.0380    5.9432 H         1 <0>         0.1357
     51 H20        -5.6339   -2.1594    6.7435 H         1 <0>         0.1317
     52 H21        -6.2097   -1.4347    9.0201 H         1 <0>         0.1305
     53 H22        -4.4785   -0.5927   10.5285 H         1 <0>         0.1381
     54 H23         1.0142    0.1175    5.7522 H         1 <0>         0.3901
     55 H24         5.0466   -3.3724    6.4026 H         1 <0>         0.0578
     56 H25         4.4187   -2.4013    7.7557 H         1 <0>         0.0587
     57 H26         4.0604   -4.1427    7.6684 H         1 <0>         0.1031
@<TRIPOS>BOND
     1    1    2 1
     2    1   32 1
     3    1   33 1
     4    1   34 1
     5    2    7 ar
     6    2    3 ar
     7    3    4 ar
     8    3   35 1
     9    4    5 ar
    10    4   36 1
    11    5    6 ar
    12    5   30 1
    13    6    7 ar
    14    6   37 1
    15    7    8 1
    16    8    9 1
    17    8   10 1
    18    8   11 1
    19    9   38 1
    20    9   39 1
    21    9   40 1
    22   10   41 1
    23   10   42 1
    24   10   43 1
    25   11   12 1
    26   11   44 1
    27   11   45 1
    28   12   13 1
    29   12   25 1
    30   12   29 1
    31   13   14 1
    32   13   46 1
    33   13   47 1
    34   14   20 1
    35   14   15 1
    36   15   16 2
    37   15   48 1
    38   16   17 1
    39   16   49 1
    40   17   18 2
    41   17   19 1
    42   19   24 ar
    43   19   20 ar
    44   20   21 ar
    45   21   22 ar
    46   21   50 1
    47   22   23 ar
    48   22   51 1
    49   23   24 ar
    50   23   52 1
    51   24   53 1
    52   25   26 1
    53   25   27 1
    54   25   28 1
    55   29   54 1
    56   30   31 1
    57   31   55 1
    58   31   56 1
    59   31   57 1
@<TRIPOS>MOLECULE
CHEMBL219561__1
   57    59     0     0     0
SMALL
USER_CHARGES

@<TRIPOS>ATOM
      1 C1          2.2010   -1.0114    1.5975 C.3       1 <0>        -0.1269
      2 C2          1.7740    0.4326    1.5380 C.ar      1 <0>        -0.1130
      3 C3          2.6767    1.4037    1.1449 C.ar      1 <0>        -0.0888
      4 C4          2.2879    2.7279    1.0899 C.ar      1 <0>        -0.1983
      5 C5          0.9903    3.0835    1.4291 C.ar      1 <0>         0.1071
      6 C6          0.0866    2.1074    1.8226 C.ar      1 <0>        -0.1001
      7 C7          0.4790    0.7835    1.8710 C.ar      1 <0>        -0.0579
      8 C8         -0.5039   -0.2781    2.2930 C.3       1 <0>        -0.0137
      9 C9         -1.8820    0.3546    2.4963 C.3       1 <0>        -0.1499
     10 C10        -0.5911   -1.3528    1.2075 C.3       1 <0>        -0.1578
     11 C11        -0.0363   -0.9139    3.6038 C.3       1 <0>        -0.1541
     12 C12        -0.5254   -0.0703    4.7828 C.3       1 <0>         0.0738
     13 C13        -0.4540   -0.8988    6.0670 C.3       1 <0>         0.0635
     14 N1         -0.9223   -0.0910    7.1959 N.pl3     1 <0>        -0.5026
     15 C14        -0.0303    0.6594    7.8866 C.2       1 <0>         0.1999
     16 C15        -0.3877    1.4280    8.9362 C.2       1 <0>        -0.3273
     17 C16        -1.7379    1.4725    9.3559 C.2       1 <0>         0.4191
     18 O1         -2.0815    2.1611   10.3026 O.2       1 <0>        -0.4984
     19 C17        -2.7156    0.6598    8.6110 C.ar      1 <0>        -0.1963
     20 C18        -2.2591   -0.1087    7.5255 C.ar      1 <0>         0.2086
     21 C19        -3.1677   -0.8794    6.8065 C.ar      1 <0>        -0.1806
     22 C20        -4.4989   -0.8751    7.1627 C.ar      1 <0>        -0.0534
     23 C21        -4.9439   -0.1100    8.2316 C.ar      1 <0>        -0.1607
     24 C22        -4.0660    0.6454    8.9585 C.ar      1 <0>        -0.0259
     25 C23         0.3605    1.1690    4.9254 C.3       1 <0>         0.4475
     26 F1          0.1235    2.0374    3.8545 F         1 <0>        -0.1387
     27 F2          0.0627    1.8192    6.1278 F         1 <0>        -0.1659
     28 F3          1.7053    0.7835    4.9244 F         1 <0>        -0.1735
     29 O2         -1.8763    0.3340    4.5512 O.3       1 <0>        -0.5152
     30 O3          0.6054    4.3858    1.3762 O.3       1 <0>        -0.3173
     31 C24         1.5888    5.3366    0.9628 C.3       1 <0>         0.0282
     32 H1          2.1260   -1.4537    0.6042 H         1 <0>         0.0718
     33 H2          3.2324   -1.0712    1.9450 H         1 <0>         0.0636
     34 H3          1.5535   -1.5537    2.2866 H         1 <0>         0.0786
     35 H4          3.6866    1.1265    0.8810 H         1 <0>         0.1224
     36 H5          2.9934    3.4861    0.7835 H         1 <0>         0.1253
     37 H6         -0.9240    2.3816    2.0872 H         1 <0>         0.1398
     38 H7         -2.2764    0.6832    1.5347 H         1 <0>         0.0390
     39 H8         -2.5579   -0.3797    2.9344 H         1 <0>         0.0530
     40 H9         -1.7936    1.2112    3.1645 H         1 <0>         0.1116
     41 H10         0.3995   -1.7714    1.0303 H         1 <0>         0.0762
     42 H11        -1.2669   -2.1437    1.5328 H         1 <0>         0.0591
     43 H12        -0.9682   -0.9088    0.2862 H         1 <0>         0.0617
     44 H13        -0.4437   -1.9217    3.6843 H         1 <0>         0.0979
     45 H14         1.0527   -0.9600    3.6170 H         1 <0>         0.1068
     46 H15        -1.0851   -1.7817    5.9654 H         1 <0>         0.1207
     47 H16         0.5765   -1.2072    6.2436 H         1 <0>         0.1145
     48 H17         1.0067    0.6414    7.5855 H         1 <0>         0.1537
     49 H18         0.3583    2.0099    9.4572 H         1 <0>         0.1492
     50 H19        -2.8312   -1.4779    5.9728 H         1 <0>         0.1247
     51 H20        -5.2034   -1.4732    6.6039 H         1 <0>         0.1317
     52 H21        -5.9907   -0.1181    8.4969 H         1 <0>         0.1300
     53 H22        -4.4188    1.2379    9.7896 H         1 <0>         0.1377
     54 H23        -2.4954   -0.4020    4.4507 H         1 <0>         0.3911
     55 H24         2.4334    5.3084    1.6512 H         1 <0>         0.0540
     56 H25         1.9312    5.0913   -0.0426 H         1 <0>         0.0546
     57 H26         1.1519    6.3352    0.9643 H         1 <0>         0.1000
@<TRIPOS>BOND
     1    1    2 1
     2    1   32 1
     3    1   33 1
     4    1   34 1
     5    2    7 ar
     6    2    3 ar
     7    3    4 ar
     8    3   35 1
     9    4    5 ar
    10    4   36 1
    11    5    6 ar
    12    5   30 1
    13    6    7 ar
    14    6   37 1
    15    7    8 1
    16    8    9 1
    17    8   10 1
    18    8   11 1
    19    9   38 1
    20    9   39 1
    21    9   40 1
    22   10   41 1
    23   10   42 1
    24   10   43 1
    25   11   12 1
    26   11   44 1
    27   11   45 1
    28   12   13 1
    29   12   25 1
    30   12   29 1
    31   13   14 1
    32   13   46 1
    33   13   47 1
    34   14   20 1
    35   14   15 1
    36   15   16 2
    37   15   48 1
    38   16   17 1
    39   16   49 1
    40   17   18 2
    41   17   19 1
    42   19   24 ar
    43   19   20 ar
    44   20   21 ar
    45   21   22 ar
    46   21   50 1
    47   22   23 ar
    48   22   51 1
    49   23   24 ar
    50   23   52 1
    51   24   53 1
    52   25   26 1
    53   25   27 1
    54   25   28 1
    55   29   54 1
    56   30   31 1
    57   31   55 1
    58   31   56 1
    59   31   57 1
@<TRIPOS>MOLECULE
CHEMBL103
   51    54     0     0     0
SMALL
USER_CHARGES

@<TRIPOS>ATOM
      1 C1         -1.2451    0.7480    0.4418 C.3       1 <0>        -0.2079
      2 C2         -0.0130   -0.0024    0.0062 C.2       1 <0>         0.3652
      3 O1          0.9705   -0.0070    0.7070 O.2       1 <0>        -0.4548
      4 C3         -0.0081   -0.7470   -1.3040 C.3       1 <0>        -0.1325
      5 H1         -0.6004   -0.2102   -2.0450 H         1 <0>         0.0978
      6 C4          1.4441   -0.9331   -1.8102 C.3       1 <0>        -0.1188
      7 C5          1.6574   -2.4625   -1.9764 C.3       1 <0>        -0.1150
      8 C6          0.2304   -2.9896   -2.1637 C.3       1 <0>        -0.0798
      9 H2         -0.1277   -2.7656   -3.1686 H         1 <0>         0.0787
     10 C7         -0.5545   -2.1580   -1.1120 C.3       1 <0>        -0.0490
     11 C8         -2.0316   -2.3550   -1.3940 C.3       1 <0>        -0.1045
     12 C9         -2.3478   -3.8377   -1.1415 C.3       1 <0>        -0.1235
     13 C10        -1.4843   -4.7528   -2.0045 C.3       1 <0>        -0.0601
     14 H3         -1.7432   -4.6061   -3.0531 H         1 <0>         0.0745
     15 C11         0.0221   -4.4589   -1.8452 C.3       1 <0>        -0.0789
     16 H4          0.3211   -4.6582   -0.8161 H         1 <0>         0.0881
     17 C12         0.8336   -5.3210   -2.8143 C.3       1 <0>        -0.1115
     18 C13         0.6511   -6.8015   -2.4654 C.3       1 <0>        -0.0957
     19 C14        -0.8350   -7.1068   -2.4640 C.2       1 <0>        -0.0284
     20 C15        -1.2808   -8.1344   -3.1732 C.2       1 <0>        -0.2297
     21 C16        -2.7173   -8.4490   -3.2129 C.2       1 <0>         0.4070
     22 O2         -3.1261   -9.4144   -3.8306 O.2       1 <0>        -0.4592
     23 C17        -3.6494   -7.5692   -2.4875 C.2       1 <0>        -0.2152
     24 C18        -3.1814   -6.5528   -1.7801 C.2       1 <0>        -0.0691
     25 C19        -1.7496   -6.2111   -1.6194 C.3       1 <0>        -0.0096
     26 C20        -1.3852   -6.3767   -0.1426 C.3       1 <0>        -0.1439
     27 C21        -0.2211   -2.6561    0.2957 C.3       1 <0>        -0.1576
     28 H5         -1.1980    1.7713    0.0694 H         1 <0>         0.0957
     29 H6         -2.1311    0.2558    0.0407 H         1 <0>         0.0848
     30 H7         -1.2975    0.7596    1.5305 H         1 <0>         0.0840
     31 H8          1.5734   -0.4309   -2.7690 H         1 <0>         0.0678
     32 H9          2.1487   -0.5342   -1.0805 H         1 <0>         0.0793
     33 H10         2.2652   -2.6738   -2.8562 H         1 <0>         0.0683
     34 H11         2.1113   -2.8881   -1.0814 H         1 <0>         0.0703
     35 H12        -2.6237   -1.7300   -0.7256 H         1 <0>         0.0680
     36 H13        -2.2487   -2.1005   -2.4314 H         1 <0>         0.0694
     37 H14        -2.1679   -4.0658   -0.0909 H         1 <0>         0.0760
     38 H15        -3.3979   -4.0211   -1.3691 H         1 <0>         0.0674
     39 H16         0.4893   -5.1434   -3.8331 H         1 <0>         0.0670
     40 H17         1.8885   -5.0577   -2.7377 H         1 <0>         0.0747
     41 H18         1.1530   -7.4195   -3.2098 H         1 <0>         0.0801
     42 H19         1.0686   -7.0011   -1.4785 H         1 <0>         0.0852
     43 H20        -0.5834   -8.7455   -3.7269 H         1 <0>         0.1363
     44 H21        -4.7127   -7.7527   -2.5328 H         1 <0>         0.1390
     45 H22        -3.8925   -5.9231   -1.2661 H         1 <0>         0.1246
     46 H23        -1.9994   -5.7079    0.4604 H         1 <0>         0.0732
     47 H24        -1.5638   -7.4078    0.1623 H         1 <0>         0.0615
     48 H25        -0.3327   -6.1323    0.0015 H         1 <0>         0.0724
     49 H26        -0.7596   -2.0571    1.0300 H         1 <0>         0.0521
     50 H27        -0.5173   -3.7007    0.3912 H         1 <0>         0.0708
     51 H28         0.8513   -2.5653    0.4688 H         1 <0>         0.0653
@<TRIPOS>BOND
     1    1    2 1
     2    1   28 1
     3    1   29 1
     4    1   30 1
     5    2    3 2
     6    2    4 1
     7    4    5 1
     8    4   10 1
     9    4    6 1
    10    6    7 1
    11    6   31 1
    12    6   32 1
    13    7    8 1
    14    7   33 1
    15    7   34 1
    16    8    9 1
    17    8   15 1
    18    8   10 1
    19   10   11 1
    20   10   27 1
    21   11   12 1
    22   11   35 1
    23   11   36 1
    24   12   13 1
    25   12   37 1
    26   12   38 1
    27   13   14 1
    28   13   25 1
    29   13   15 1
    30   15   16 1
    31   15   17 1
    32   17   18 1
    33   17   39 1
    34   17   40 1
    35   18   19 1
    36   18   41 1
    37   18   42 1
    38   19   25 1
    39   19   20 2
    40   20   21 1
    41   20   43 1
    42   21   22 2
    43   21   23 1
    44   23   24 2
    45   23   44 1
    46   24   25 1
    47   24   45 1
    48   25   26 1
    49   26   46 1
    50   26   47 1
    51   26   48 1
    52   27   49 1
    53   27   50 1
    54   27   51 1
@<TRIPOS>MOLECULE
CHEMBL196237
   71    74     0     0     0
SMALL
USER_CHARGES

@<TRIPOS>ATOM
      1 C1         -2.5513    1.1302    0.2537 C.3       1 <0>        -0.1388
      2 C2         -1.6304    0.1260    0.9498 C.3       1 <0>        -0.0311
      3 C3         -1.0149    0.7742    2.1915 C.3       1 <0>        -0.1392
      4 C4         -2.4389   -1.1049    1.3647 C.3       1 <0>        -0.1456
      5 C5         -0.5333   -0.2891    0.0037 C.ar      1 <0>        -0.0655
      6 C6         -0.3964   -1.6167   -0.3561 C.ar      1 <0>        -0.1194
      7 C7          0.6099   -1.9975   -1.2239 C.ar      1 <0>        -0.1120
      8 C8          1.4791   -1.0505   -1.7324 C.ar      1 <0>        -0.0816
      9 C9          1.3417    0.2773   -1.3734 C.ar      1 <0>        -0.0984
     10 C10         0.3327    0.6587   -0.5089 C.ar      1 <0>        -0.1135
     11 C11         2.5768   -1.4657   -2.6777 C.3       1 <0>        -0.0989
     12 C12         2.0637   -1.3955   -4.1174 C.3       1 <0>         0.1372
     13 C13         0.7943   -2.2396   -4.2481 C.3       1 <0>        -0.0936
     14 C14         0.2667   -2.1485   -5.6814 C.3       1 <0>        -0.0214
     15 C15         0.0761   -0.6790   -6.0623 C.3       1 <0>        -0.1246
     16 C16         1.2707   -2.7968   -6.6366 C.3       1 <0>        -0.1775
     17 C17        -1.0542   -2.8677   -5.7770 C.ar      1 <0>        -0.0660
     18 C18        -1.5958   -3.4702   -4.6570 C.ar      1 <0>        -0.1224
     19 C19        -2.8074   -4.1299   -4.7447 C.ar      1 <0>        -0.1163
     20 C20        -3.4776   -4.1866   -5.9524 C.ar      1 <0>        -0.1254
     21 C21        -2.9365   -3.5833   -7.0722 C.ar      1 <0>        -0.1171
     22 C22        -1.7269   -2.9200   -6.9835 C.ar      1 <0>        -0.1157
     23 C23         3.1188   -1.9267   -5.0532 C.2       1 <0>         0.5073
     24 O1          3.5347   -3.0580   -4.9186 O.2       1 <0>        -0.5018
     25 N1          3.6002   -1.1446   -6.0396 N.am      1 <0>        -0.6778
     26 C24         4.5489   -1.6483   -6.9283 C.ar      1 <0>         0.1884
     27 C25         4.4253   -2.9464   -7.4148 C.ar      1 <0>        -0.1280
     28 C26         5.3588   -3.4497   -8.2926 C.ar      1 <0>        -0.0108
     29 C27         6.4340   -2.6538   -8.6962 C.ar      1 <0>        -0.2092
     30 C28         6.5521   -1.3491   -8.2029 C.ar      1 <0>        -0.0826
     31 C29         5.6161   -0.8498   -7.3326 C.ar      1 <0>        -0.1225
     32 C30         7.7993   -0.7761   -8.8268 C.3       1 <0>         0.0915
     33 O2          8.3473   -1.7982   -9.6636 O.3       1 <0>        -0.3143
     34 C31         7.5704   -2.8927   -9.6008 C.2       1 <0>         0.5228
     35 O3          7.7756   -3.9279  -10.2028 O.2       1 <0>        -0.4473
     36 O4          1.7696   -0.0379   -4.4526 O.3       1 <0>        -0.5297
     37 H1         -1.9754    2.0071   -0.0419 H         1 <0>         0.0566
     38 H2         -2.9898    0.6684   -0.6309 H         1 <0>         0.0565
     39 H3         -3.3449    1.4304    0.9380 H         1 <0>         0.0587
     40 H4         -1.8084    1.0744    2.8758 H         1 <0>         0.0590
     41 H5         -0.3588    0.0589    2.6874 H         1 <0>         0.0562
     42 H6         -0.4389    1.6512    1.8959 H         1 <0>         0.0566
     43 H7         -2.8774   -1.5667    0.4800 H         1 <0>         0.0589
     44 H8         -1.7828   -1.8203    1.8606 H         1 <0>         0.0586
     45 H9         -3.2324   -0.8047    2.0490 H         1 <0>         0.0588
     46 H10        -1.0755   -2.3566    0.0412 H         1 <0>         0.1261
     47 H11         0.7173   -3.0349   -1.5044 H         1 <0>         0.1200
     48 H12         2.0210    1.0172   -1.7703 H         1 <0>         0.1183
     49 H13         0.2230    1.6967   -0.2313 H         1 <0>         0.1196
     50 H14         3.4285   -0.7953   -2.5624 H         1 <0>         0.0802
     51 H15         2.8847   -2.4865   -2.4511 H         1 <0>         0.0949
     52 H16         1.0228   -3.2785   -4.0104 H         1 <0>         0.0879
     53 H17         0.0375   -1.8668   -3.5580 H         1 <0>         0.0980
     54 H18         1.0337   -0.2547   -6.3641 H         1 <0>         0.0637
     55 H19        -0.6302   -0.6067   -6.8893 H         1 <0>         0.0461
     56 H20        -0.3110   -0.1287   -5.2047 H         1 <0>         0.0679
     57 H21         1.5665   -3.7708   -6.2467 H         1 <0>         0.0617
     58 H22         0.8108   -2.9224   -7.6168 H         1 <0>         0.0607
     59 H23         2.1502   -2.1593   -6.7270 H         1 <0>         0.0786
     60 H24        -1.0722   -3.4259   -3.7135 H         1 <0>         0.1231
     61 H25        -3.2302   -4.6013   -3.8698 H         1 <0>         0.1205
     62 H26        -4.4239   -4.7026   -6.0211 H         1 <0>         0.1200
     63 H27        -3.4599   -3.6279   -8.0158 H         1 <0>         0.1206
     64 H28        -1.3059   -2.4454   -7.8576 H         1 <0>         0.1195
     65 H29         3.2865   -0.2313   -6.1312 H         1 <0>         0.4169
     66 H30         3.5942   -3.5612   -7.1022 H         1 <0>         0.1484
     67 H31         5.2604   -4.4575   -8.6681 H         1 <0>         0.1423
     68 H32         5.7089    0.1591   -6.9585 H         1 <0>         0.1406
     69 H33         7.5486    0.1005   -9.4242 H         1 <0>         0.1189
     70 H34         8.5149   -0.5064   -8.0501 H         1 <0>         0.1184
     71 H35         2.5303    0.5560   -4.3915 H         1 <0>         0.3683
@<TRIPOS>BOND
     1    1    2 1
     2    1   37 1
     3    1   38 1
     4    1   39 1
     5    2    3 1
     6    2    4 1
     7    2    5 1
     8    3   40 1
     9    3   41 1
    10    3   42 1
    11    4   43 1
    12    4   44 1
    13    4   45 1
    14    5   10 ar
    15    5    6 ar
    16    6    7 ar
    17    6   46 1
    18    7    8 ar
    19    7   47 1
    20    8    9 ar
    21    8   11 1
    22    9   10 ar
    23    9   48 1
    24   10   49 1
    25   11   12 1
    26   11   50 1
    27   11   51 1
    28   12   13 1
    29   12   23 1
    30   12   36 1
    31   13   14 1
    32   13   52 1
    33   13   53 1
    34   14   15 1
    35   14   16 1
    36   14   17 1
    37   15   54 1
    38   15   55 1
    39   15   56 1
    40   16   57 1
    41   16   58 1
    42   16   59 1
    43   17   22 ar
    44   17   18 ar
    45   18   19 ar
    46   18   60 1
    47   19   20 ar
    48   19   61 1
    49   20   21 ar
    50   20   62 1
    51   21   22 ar
    52   21   63 1
    53   22   64 1
    54   23   24 2
    55   23   25 am
    56   25   26 1
    57   25   65 1
    58   26   31 ar
    59   26   27 ar
    60   27   28 ar
    61   27   66 1
    62   28   29 ar
    63   28   67 1
    64   29   34 1
    65   29   30 ar
    66   30   31 ar
    67   30   32 1
    68   31   68 1
    69   32   33 1
    70   32   69 1
    71   32   70 1
    72   33   34 1
    73   34   35 2
    74   36   71 1
@<TRIPOS>MOLECULE
CHEMBL196237__1
   71    74     0     0     0
SMALL
USER_CHARGES

@<TRIPOS>ATOM
      1 C1          2.5262    3.1934    0.7185 C.3       1 <0>        -0.1389
      2 C2          2.3107    1.7234    1.0840 C.3       1 <0>        -0.0312
      3 C3          3.1955    1.3598    2.2781 C.3       1 <0>        -0.1394
      4 C4          0.8422    1.4989    1.4503 C.3       1 <0>        -0.1450
      5 C5          2.6733    0.8548   -0.0929 C.ar      1 <0>        -0.0656
      6 C6          1.7213    0.0303   -0.6628 C.ar      1 <0>        -0.1195
      7 C7          2.0539   -0.7665   -1.7423 C.ar      1 <0>        -0.0965
      8 C8          3.3384   -0.7384   -2.2522 C.ar      1 <0>        -0.0818
      9 C9          4.2902    0.0867   -1.6829 C.ar      1 <0>        -0.1114
     10 C10         3.9565    0.8867   -0.6061 C.ar      1 <0>        -0.1139
     11 C11         3.7013   -1.6078   -3.4285 C.3       1 <0>        -0.0977
     12 C12         3.3205   -0.8939   -4.7270 C.3       1 <0>         0.1362
     13 C13         4.0908    0.4241   -4.8292 C.3       1 <0>        -0.0933
     14 C14         3.6862    1.1532   -6.1121 C.3       1 <0>        -0.0212
     15 C15         4.1224    0.3300   -7.3257 C.3       1 <0>        -0.1776
     16 C16         2.1672    1.3345   -6.1382 C.3       1 <0>        -0.1297
     17 C17         4.3541    2.5034   -6.1545 C.ar      1 <0>        -0.0660
     18 C18         5.1883    2.8945   -5.1240 C.ar      1 <0>        -0.1228
     19 C19         5.8010    4.1331   -5.1630 C.ar      1 <0>        -0.1163
     20 C20         5.5799    4.9803   -6.2327 C.ar      1 <0>        -0.1256
     21 C21         4.7464    4.5887   -7.2636 C.ar      1 <0>        -0.1173
     22 C22         4.1371    3.3484   -7.2268 C.ar      1 <0>        -0.1158
     23 C23         3.6671   -1.7707   -5.9026 C.2       1 <0>         0.5074
     24 O1          4.7930   -2.2046   -6.0243 O.2       1 <0>        -0.4988
     25 N1          2.7259   -2.0727   -6.8188 N.am      1 <0>        -0.6739
     26 C24         3.0166   -2.9667   -7.8483 C.ar      1 <0>         0.1921
     27 C25         3.8790   -4.0346   -7.6184 C.ar      1 <0>        -0.1309
     28 C26         4.1702   -4.9209   -8.6308 C.ar      1 <0>        -0.0084
     29 C27         3.5974   -4.7471   -9.8934 C.ar      1 <0>        -0.2136
     30 C28         2.7308   -3.6708  -10.1174 C.ar      1 <0>        -0.0789
     31 C29         2.4391   -2.7932   -9.1037 C.ar      1 <0>        -0.1276
     32 C30         2.2971   -3.7743  -11.5577 C.3       1 <0>         0.0911
     33 O2          2.9475   -4.9262  -12.1011 O.3       1 <0>        -0.3145
     34 C31         3.7045   -5.5023  -11.1523 C.2       1 <0>         0.5229
     35 O3          4.3786   -6.5008  -11.3102 O.2       1 <0>        -0.4485
     36 O4          1.9167   -0.6266   -4.7297 O.3       1 <0>        -0.5286
     37 H1          3.5723    3.3533    0.4576 H         1 <0>         0.0566
     38 H2          1.8958    3.4524   -0.1322 H         1 <0>         0.0565
     39 H3          2.2639    3.8217    1.5697 H         1 <0>         0.0588
     40 H4          2.9332    1.9880    3.1293 H         1 <0>         0.0590
     41 H5          3.0420    0.3125    2.5385 H         1 <0>         0.0562
     42 H6          4.2416    1.5197    2.0171 H         1 <0>         0.0568
     43 H7          0.2119    1.7580    0.5996 H         1 <0>         0.0587
     44 H8          0.6887    0.4517    1.7107 H         1 <0>         0.0583
     45 H9          0.5799    2.1272    2.3015 H         1 <0>         0.0586
     46 H10         0.7177    0.0084   -0.2644 H         1 <0>         0.1252
     47 H11         1.3103   -1.4111   -2.1871 H         1 <0>         0.1178
     48 H12         5.2939    0.1083   -2.0811 H         1 <0>         0.1196
     49 H13         4.6991    1.5341   -0.1636 H         1 <0>         0.1200
     50 H14         4.7742   -1.8002   -3.4208 H         1 <0>         0.0952
     51 H15         3.1622   -2.5528   -3.3619 H         1 <0>         0.0801
     52 H16         3.8575    1.0491   -3.9672 H         1 <0>         0.0960
     53 H17         5.1610    0.2188   -4.8501 H         1 <0>         0.0873
     54 H18         3.4042   -0.4716   -7.4983 H         1 <0>         0.0776
     55 H19         4.1667    0.9735   -8.2043 H         1 <0>         0.0596
     56 H20         5.1072   -0.0985   -7.1392 H         1 <0>         0.0615
     57 H21         1.8326    1.7349   -5.1812 H         1 <0>         0.0614
     58 H22         1.8976    2.0267   -6.9359 H         1 <0>         0.0457
     59 H23         1.6892    0.3712   -6.3161 H         1 <0>         0.0749
     60 H24         5.3611    2.2327   -4.2883 H         1 <0>         0.1229
     61 H25         6.4522    4.4390   -4.3575 H         1 <0>         0.1206
     62 H26         6.0580    5.9482   -6.2627 H         1 <0>         0.1201
     63 H27         4.5734    5.2507   -8.0992 H         1 <0>         0.1206
     64 H28         3.4889    3.0410   -8.0340 H         1 <0>         0.1193
     65 H29         1.8461   -1.6680   -6.7618 H         1 <0>         0.4186
     66 H30         4.3217   -4.1682   -6.6424 H         1 <0>         0.1477
     67 H31         4.8401   -5.7484   -8.4496 H         1 <0>         0.1419
     68 H32         1.7662   -1.9671   -9.2802 H         1 <0>         0.1406
     69 H33         1.2153   -3.8956  -11.6137 H         1 <0>         0.1189
     70 H34         2.6015   -2.8815  -12.1040 H         1 <0>         0.1184
     71 H35         1.3654   -1.4186   -4.6672 H         1 <0>         0.3693
@<TRIPOS>BOND
     1    1    2 1
     2    1   37 1
     3    1   38 1
     4    1   39 1
     5    2    3 1
     6    2    4 1
     7    2    5 1
     8    3   40 1
     9    3   41 1
    10    3   42 1
    11    4   43 1
    12    4   44 1
    13    4   45 1
    14    5   10 ar
    15    5    6 ar
    16    6    7 ar
    17    6   46 1
    18    7    8 ar
    19    7   47 1
    20    8    9 ar
    21    8   11 1
    22    9   10 ar
    23    9   48 1
    24   10   49 1
    25   11   12 1
    26   11   50 1
    27   11   51 1
    28   12   13 1
    29   12   23 1
    30   12   36 1
    31   13   14 1
    32   13   52 1
    33   13   53 1
    34   14   15 1
    35   14   16 1
    36   14   17 1
    37   15   54 1
    38   15   55 1
    39   15   56 1
    40   16   57 1
    41   16   58 1
    42   16   59 1
    43   17   22 ar
    44   17   18 ar
    45   18   19 ar
    46   18   60 1
    47   19   20 ar
    48   19   61 1
    49   20   21 ar
    50   20   62 1
    51   21   22 ar
    52   21   63 1
    53   22   64 1
    54   23   24 2
    55   23   25 am
    56   25   26 1
    57   25   65 1
    58   26   31 ar
    59   26   27 ar
    60   27   28 ar
    61   27   66 1
    62   28   29 ar
    63   28   67 1
    64   29   34 1
    65   29   30 ar
    66   30   31 ar
    67   30   32 1
    68   31   68 1
    69   32   33 1
    70   32   69 1
    71   32   70 1
    72   33   34 1
    73   34   35 2
    74   36   71 1
@<TRIPOS>MOLECULE
CHEMBL216272
   57    60     0     0     0
SMALL
USER_CHARGES

@<TRIPOS>ATOM
      1 C1         -4.6599    7.1264   -0.9269 C.3       1 <0>        -0.1040
      2 C2         -3.7411    6.2453   -0.1202 C.2       1 <0>         0.1577
      3 C3         -4.1982    4.9297    0.3525 C.ar      1 <0>        -0.0561
      4 C4         -5.3507    4.3194   -0.1190 C.ar      1 <0>        -0.1012
      5 C5         -5.7174    3.0778    0.3840 C.ar      1 <0>         0.1735
      6 C6         -4.9401    2.4459    1.3537 C.ar      1 <0>        -0.1056
      7 C7         -3.7904    3.0403    1.8290 C.ar      1 <0>        -0.0263
      8 C8         -3.4088    4.2804    1.3330 C.ar      1 <0>        -0.1626
      9 C9         -2.1913    4.9824    1.7743 C.2       1 <0>         0.4867
     10 O1         -1.7121    4.7927    2.8761 O.2       1 <0>        -0.4338
     11 O2         -1.6304    5.8465    0.8993 O.3       1 <0>        -0.1617
     12 N1         -2.5374    6.6363    0.1603 N.2       1 <0>        -0.2542
     13 N2         -6.8753    2.4571   -0.0853 N.am      1 <0>        -0.6578
     14 C10        -6.9069    1.1187   -0.2402 C.2       1 <0>         0.4921
     15 O3         -5.9663    0.4440    0.1216 O.2       1 <0>        -0.4778
     16 C11        -8.1111    0.4604   -0.8630 C.3       1 <0>         0.0868
     17 C12        -8.2045   -0.9896   -0.3840 C.3       1 <0>        -0.1363
     18 C13        -9.4689   -1.6349   -0.9547 C.3       1 <0>        -0.0188
     19 C14        -9.8716   -2.8260   -0.0830 C.3       1 <0>        -0.1350
     20 C15       -10.6030   -0.6079   -0.9703 C.3       1 <0>        -0.1584
     21 C16        -9.2008   -2.1086   -2.3599 C.ar      1 <0>        -0.0949
     22 C17        -7.9446   -2.5641   -2.7038 C.ar      1 <0>        -0.0940
     23 C18        -7.6878   -3.0009   -3.9900 C.ar      1 <0>        -0.1415
     24 C19        -8.6959   -2.9767   -4.9379 C.ar      1 <0>        -0.0740
     25 C20        -9.9495   -2.5198   -4.5977 C.ar      1 <0>        -0.1764
     26 C21       -10.2231   -2.0904   -3.3050 C.ar      1 <0>         0.1281
     27 O4        -11.5238   -1.7092   -3.1773 O.3       1 <0>        -0.2922
     28 C22       -12.0717   -1.4512   -4.4813 C.3       1 <0>         0.0468
     29 C23       -11.2283   -2.3642   -5.3977 C.3       1 <0>        -0.1105
     30 C24        -7.9755    0.4865   -2.3867 C.3       1 <0>         0.4723
     31 F1         -6.9292   -0.3566   -2.7763 F         1 <0>        -0.1564
     32 F2         -9.1695    0.0473   -2.9687 F         1 <0>        -0.1398
     33 F3         -7.7038    1.7924   -2.8085 F         1 <0>        -0.1775
     34 O5         -9.2923    1.1663   -0.4778 O.3       1 <0>        -0.5172
     35 H1         -4.1425    8.0501   -1.1860 H         1 <0>         0.0948
     36 H2         -4.9538    6.6065   -1.8387 H         1 <0>         0.1000
     37 H3         -5.5478    7.3598   -0.3394 H         1 <0>         0.0990
     38 H4         -5.9567    4.8045   -0.8699 H         1 <0>         0.1522
     39 H5         -5.2415    1.4820    1.7363 H         1 <0>         0.1557
     40 H6         -3.1922    2.5464    2.5804 H         1 <0>         0.1522
     41 H7         -7.6577    2.9888   -0.3001 H         1 <0>         0.4248
     42 H8         -7.3290   -1.5421   -0.7251 H         1 <0>         0.1070
     43 H9         -8.2456   -1.0106    0.7051 H         1 <0>         0.0999
     44 H10       -10.1485   -2.4724    0.9102 H         1 <0>         0.0608
     45 H11       -10.7208   -3.3374   -0.5364 H         1 <0>         0.0628
     46 H12        -9.0325   -3.5170   -0.0018 H         1 <0>         0.0576
     47 H13       -10.3611    0.1898   -1.6726 H         1 <0>         0.0964
     48 H14       -11.5290   -1.0939   -1.2775 H         1 <0>         0.0660
     49 H15       -10.7267   -0.1880    0.0279 H         1 <0>         0.0522
     50 H16        -7.1577   -2.5792   -1.9643 H         1 <0>         0.1318
     51 H17        -6.7040   -3.3594   -4.2543 H         1 <0>         0.1270
     52 H18        -8.4995   -3.3164   -5.9441 H         1 <0>         0.1225
     53 H19       -13.1257   -1.7265   -4.5186 H         1 <0>         0.1054
     54 H20       -11.9345   -0.4059   -4.7580 H         1 <0>         0.0750
     55 H21       -11.0311   -1.8892   -6.3587 H         1 <0>         0.0902
     56 H22       -11.7218   -3.3264   -5.5344 H         1 <0>         0.0884
     57 H23        -9.4423    1.1904    0.4772 H         1 <0>         0.3984
@<TRIPOS>BOND
     1    1    2 1
     2    1   35 1
     3    1   36 1
     4    1   37 1
     5    2   12 2
     6    2    3 1
     7    3    8 ar
     8    3    4 ar
     9    4    5 ar
    10    4   38 1
    11    5    6 ar
    12    5   13 1
    13    6    7 ar
    14    6   39 1
    15    7    8 ar
    16    7   40 1
    17    8    9 1
    18    9   10 2
    19    9   11 1
    20   11   12 1
    21   13   14 am
    22   13   41 1
    23   14   15 2
    24   14   16 1
    25   16   17 1
    26   16   30 1
    27   16   34 1
    28   17   18 1
    29   17   42 1
    30   17   43 1
    31   18   19 1
    32   18   20 1
    33   18   21 1
    34   19   44 1
    35   19   45 1
    36   19   46 1
    37   20   47 1
    38   20   48 1
    39   20   49 1
    40   21   26 ar
    41   21   22 ar
    42   22   23 ar
    43   22   50 1
    44   23   24 ar
    45   23   51 1
    46   24   25 ar
    47   24   52 1
    48   25   29 1
    49   25   26 ar
    50   26   27 1
    51   27   28 1
    52   28   29 1
    53   28   53 1
    54   28   54 1
    55   29   55 1
    56   29   56 1
    57   30   31 1
    58   30   32 1
    59   30   33 1
    60   34   57 1
@<TRIPOS>MOLECULE
CHEMBL216272__1
   57    60     0     0     0
SMALL
USER_CHARGES

@<TRIPOS>ATOM
      1 C1         -1.9669    0.3180   -7.9205 C.3       1 <0>        -0.1036
      2 C2         -1.2825   -0.3471   -6.7542 C.2       1 <0>         0.1574
      3 C3         -1.9302   -0.3840   -5.4342 C.ar      1 <0>        -0.0564
      4 C4         -3.2671   -0.0690   -5.2430 C.ar      1 <0>        -0.1021
      5 C5         -3.8018   -0.1217   -3.9623 C.ar      1 <0>         0.1735
      6 C6         -3.0085   -0.4860   -2.8752 C.ar      1 <0>        -0.1052
      7 C7         -1.6786   -0.8043   -3.0517 C.ar      1 <0>        -0.0257
      8 C8         -1.1304   -0.7594   -4.3273 C.ar      1 <0>        -0.1625
      9 C9          0.2760   -1.0945   -4.6097 C.2       1 <0>         0.4864
     10 O1          1.1413   -0.9703   -3.7638 O.2       1 <0>        -0.4332
     11 O2          0.5613   -1.5466   -5.8511 O.3       1 <0>        -0.1617
     12 N1         -0.1186   -0.8978   -6.9044 N.2       1 <0>        -0.2543
     13 N2         -5.1460    0.1934   -3.7615 N.am      1 <0>        -0.6574
     14 C10        -5.8641   -0.4749   -2.8373 C.2       1 <0>         0.4916
     15 O3         -5.3218   -1.2894   -2.1207 O.2       1 <0>        -0.4782
     16 C11        -7.3407   -0.2102   -2.6943 C.3       1 <0>         0.0863
     17 C12        -8.0231   -1.4392   -2.0903 C.3       1 <0>        -0.1381
     18 C13        -9.5345   -1.2081   -2.0357 C.3       1 <0>        -0.0186
     19 C14        -9.9800   -0.4494   -3.2874 C.3       1 <0>        -0.1534
     20 C15       -10.2547   -2.5565   -1.9732 C.3       1 <0>        -0.1349
     21 C16        -9.8751   -0.3995   -0.8104 C.ar      1 <0>        -0.0873
     22 C17        -9.0274   -0.4106    0.2781 C.ar      1 <0>        -0.1045
     23 C18        -9.3303    0.3274    1.4071 C.ar      1 <0>        -0.1399
     24 C19       -10.4925    1.0778    1.4460 C.ar      1 <0>        -0.0761
     25 C20       -11.3414    1.0881    0.3619 C.ar      1 <0>        -0.1733
     26 C21       -11.0414    0.3608   -0.7831 C.ar      1 <0>         0.1205
     27 O4        -11.9942    0.5329   -1.7401 O.3       1 <0>        -0.2932
     28 C22       -13.1953    1.0325   -1.1279 C.3       1 <0>         0.0465
     29 C23       -12.6644    1.7857    0.1112 C.3       1 <0>        -0.1106
     30 C24        -7.5562    0.9953   -1.7770 C.3       1 <0>         0.4713
     31 F1         -6.7985    2.0758   -2.2412 F         1 <0>        -0.1771
     32 F2         -8.9113    1.3429   -1.7744 F         1 <0>        -0.1375
     33 F3         -7.1559    0.6693   -0.4768 F         1 <0>        -0.1557
     34 O5         -7.9023    0.0629   -3.9796 O.3       1 <0>        -0.5162
     35 H1         -1.3360    0.2382   -8.8058 H         1 <0>         0.0946
     36 H2         -2.9218   -0.1726   -8.1093 H         1 <0>         0.0995
     37 H3         -2.1380    1.3695   -7.6899 H         1 <0>         0.0991
     38 H4         -3.8862    0.2141   -6.0815 H         1 <0>         0.1523
     39 H5         -3.4396   -0.5188   -1.8855 H         1 <0>         0.1557
     40 H6         -1.0687   -1.0855   -2.2060 H         1 <0>         0.1523
     41 H7         -5.5638    0.8934   -4.2871 H         1 <0>         0.4252
     42 H8         -7.8111   -2.3124   -2.7072 H         1 <0>         0.1003
     43 H9         -7.6444   -1.6061   -1.0819 H         1 <0>         0.1080
     44 H10        -9.6052   -0.9602   -4.1744 H         1 <0>         0.0540
     45 H11       -11.0688   -0.4130   -3.3220 H         1 <0>         0.0637
     46 H12        -9.5833    0.5654   -3.2577 H         1 <0>         0.0929
     47 H13       -10.0044   -3.0592   -1.0390 H         1 <0>         0.0576
     48 H14       -11.3317   -2.3958   -2.0222 H         1 <0>         0.0632
     49 H15        -9.9411   -3.1752   -2.8141 H         1 <0>         0.0604
     50 H16        -8.1224   -0.9994    0.2481 H         1 <0>         0.1370
     51 H17        -8.6626    0.3182    2.2558 H         1 <0>         0.1269
     52 H18       -10.7334    1.6554    2.3262 H         1 <0>         0.1224
     53 H19       -13.7194    1.7099   -1.8021 H         1 <0>         0.1058
     54 H20       -13.8437    0.2112   -0.8229 H         1 <0>         0.0745
     55 H21       -13.3337    1.6694    0.9637 H         1 <0>         0.0905
     56 H22       -12.5112    2.8396   -0.1209 H         1 <0>         0.0884
     57 H23        -7.8022   -0.6598   -4.6142 H         1 <0>         0.3986
@<TRIPOS>BOND
     1    1    2 1
     2    1   35 1
     3    1   36 1
     4    1   37 1
     5    2   12 2
     6    2    3 1
     7    3    8 ar
     8    3    4 ar
     9    4    5 ar
    10    4   38 1
    11    5    6 ar
    12    5   13 1
    13    6    7 ar
    14    6   39 1
    15    7    8 ar
    16    7   40 1
    17    8    9 1
    18    9   10 2
    19    9   11 1
    20   11   12 1
    21   13   14 am
    22   13   41 1
    23   14   15 2
    24   14   16 1
    25   16   17 1
    26   16   30 1
    27   16   34 1
    28   17   18 1
    29   17   42 1
    30   17   43 1
    31   18   19 1
    32   18   20 1
    33   18   21 1
    34   19   44 1
    35   19   45 1
    36   19   46 1
    37   20   47 1
    38   20   48 1
    39   20   49 1
    40   21   26 ar
    41   21   22 ar
    42   22   23 ar
    43   22   50 1
    44   23   24 ar
    45   23   51 1
    46   24   25 ar
    47   24   52 1
    48   25   29 1
    49   25   26 ar
    50   26   27 1
    51   27   28 1
    52   28   29 1
    53   28   53 1
    54   28   54 1
    55   29   55 1
    56   29   56 1
    57   30   31 1
    58   30   32 1
    59   30   33 1
    60   34   57 1
@<TRIPOS>MOLECULE
CHEMBL393392
   54    55     0     0     0
SMALL
USER_CHARGES

@<TRIPOS>ATOM
      1 C1          1.1095   -0.7031   -2.4250 C.3       1 <0>        -0.1156
      2 C2          0.9213   -2.0700   -1.8190 C.ar      1 <0>        -0.0817
      3 C3          0.8758   -3.1865   -2.6328 C.ar      1 <0>        -0.1172
      4 C4          0.7031   -4.4403   -2.0769 C.ar      1 <0>        -0.0843
      5 C5          0.5763   -4.5777   -0.7072 C.ar      1 <0>        -0.1029
      6 C6          0.6226   -3.4612    0.1066 C.ar      1 <0>        -0.0850
      7 C7          0.7996   -2.2079   -0.4489 C.ar      1 <0>        -0.1049
      8 C8          0.4838   -3.6109    1.5997 C.3       1 <0>        -0.1112
      9 C9          1.8671   -3.8072    2.2234 C.3       1 <0>         0.1065
     10 C10         1.7262   -3.9592    3.7393 C.3       1 <0>        -0.1561
     11 C11         3.0902   -4.2915    4.3475 C.3       1 <0>        -0.0160
     12 C12         2.8930   -5.1082    5.6262 C.3       1 <0>        -0.1360
     13 C13         3.9113   -5.1046    3.3447 C.3       1 <0>        -0.1515
     14 C14         3.8190   -3.0138    4.6748 C.ar      1 <0>        -0.0384
     15 C15         3.1113   -1.8405    4.8526 C.ar      1 <0>        -0.1513
     16 C16         3.7805   -0.6666    5.1538 C.ar      1 <0>         0.0762
     17 C17         5.1598   -0.6665    5.2768 C.ar      1 <0>        -0.1302
     18 C18         5.8698   -1.8380    5.0996 C.ar      1 <0>        -0.1700
     19 C19         5.1999   -3.0162    4.8034 C.ar      1 <0>         0.1153
     20 O1          5.8969   -4.1711    4.6342 O.3       1 <0>        -0.2956
     21 C20         7.3165   -4.0995    4.7814 C.3       1 <0>         0.0163
     22 F1          3.0873    0.4799    5.3274 F         1 <0>        -0.1404
     23 C21         2.7440   -2.5927    1.9119 C.3       1 <0>         0.4599
     24 F2          2.1012   -1.4293    2.3482 F         1 <0>        -0.1762
     25 F3          3.9713   -2.7225    2.5707 F         1 <0>        -0.1527
     26 F4          2.9612   -2.5160    0.5320 F         1 <0>        -0.1655
     27 O2          2.4716   -4.9829    1.6810 O.3       1 <0>        -0.5208
     28 C22         0.6526   -5.6575   -2.9641 C.3       1 <0>        -0.1140
     29 H1          2.1741   -0.4785   -2.4912 H         1 <0>         0.0701
     30 H2          0.6716   -0.6847   -3.4230 H         1 <0>         0.0663
     31 H3          0.6192    0.0425   -1.7992 H         1 <0>         0.0654
     32 H4          0.9749   -3.0792   -3.7028 H         1 <0>         0.1195
     33 H5          0.4406   -5.5572   -0.2730 H         1 <0>         0.1180
     34 H6          0.8396   -1.3360    0.1872 H         1 <0>         0.1161
     35 H7          0.0227   -2.7141    2.0134 H         1 <0>         0.0933
     36 H8         -0.1409   -4.4761    1.8216 H         1 <0>         0.0978
     37 H9          1.3560   -3.0265    4.1651 H         1 <0>         0.0933
     38 H10         1.0242   -4.7633    3.9601 H         1 <0>         0.0967
     39 H11         2.2895   -5.9886    5.4057 H         1 <0>         0.0610
     40 H12         3.8638   -5.4203    6.0113 H         1 <0>         0.0642
     41 H13         2.3853   -4.4974    6.3727 H         1 <0>         0.0545
     42 H14         4.1477   -4.4837    2.4806 H         1 <0>         0.0870
     43 H15         4.8357   -5.4372    3.8169 H         1 <0>         0.0686
     44 H16         3.3355   -5.9720    3.0221 H         1 <0>         0.0602
     45 H17         2.0356   -1.8391    4.7562 H         1 <0>         0.1433
     46 H18         5.6807    0.2501    5.5111 H         1 <0>         0.1354
     47 H19         6.9455   -1.8375    5.1952 H         1 <0>         0.1365
     48 H20         7.7486   -5.0873    4.6214 H         1 <0>         0.1003
     49 H21         7.7230   -3.4021    4.0490 H         1 <0>         0.0548
     50 H22         7.5607   -3.7545    5.7861 H         1 <0>         0.0542
     51 H23         1.9689   -5.7933    1.8410 H         1 <0>         0.3865
     52 H24         1.6594   -6.0542   -3.0943 H         1 <0>         0.0702
     53 H25         0.0197   -6.4164   -2.5041 H         1 <0>         0.0651
     54 H26         0.2420   -5.3821   -3.9356 H         1 <0>         0.0651
@<TRIPOS>BOND
     1    1    2 1
     2    1   29 1
     3    1   30 1
     4    1   31 1
     5    2    7 ar
     6    2    3 ar
     7    3    4 ar
     8    3   32 1
     9    4    5 ar
    10    4   28 1
    11    5    6 ar
    12    5   33 1
    13    6    7 ar
    14    6    8 1
    15    7   34 1
    16    8    9 1
    17    8   35 1
    18    8   36 1
    19    9   10 1
    20    9   23 1
    21    9   27 1
    22   10   11 1
    23   10   37 1
    24   10   38 1
    25   11   12 1
    26   11   13 1
    27   11   14 1
    28   12   39 1
    29   12   40 1
    30   12   41 1
    31   13   42 1
    32   13   43 1
    33   13   44 1
    34   14   19 ar
    35   14   15 ar
    36   15   16 ar
    37   15   45 1
    38   16   17 ar
    39   16   22 1
    40   17   18 ar
    41   17   46 1
    42   18   19 ar
    43   18   47 1
    44   19   20 1
    45   20   21 1
    46   21   48 1
    47   21   49 1
    48   21   50 1
    49   23   24 1
    50   23   25 1
    51   23   26 1
    52   27   51 1
    53   28   52 1
    54   28   53 1
    55   28   54 1
@<TRIPOS>MOLECULE
CHEMBL393392__1
   54    55     0     0     0
SMALL
USER_CHARGES

@<TRIPOS>ATOM
      1 C1          1.5860    3.5504    3.5652 C.3       1 <0>        -0.1140
      2 C2          1.3493    2.3221    2.7248 C.ar      1 <0>        -0.0848
      3 C3          1.4370    2.3995    1.3475 C.ar      1 <0>        -0.1166
      4 C4          1.2198    1.2728    0.5766 C.ar      1 <0>        -0.0825
      5 C5          0.9154    0.0685    1.1832 C.ar      1 <0>        -0.1044
      6 C6          0.8287   -0.0092    2.5606 C.ar      1 <0>        -0.0873
      7 C7          1.0500    1.1166    3.3316 C.ar      1 <0>        -0.1022
      8 C8          0.4963   -1.3219    3.2218 C.3       1 <0>        -0.1104
      9 C9          1.7886   -2.0864    3.5160 C.3       1 <0>         0.1048
     10 C10         1.4472   -3.4702    4.0723 C.3       1 <0>        -0.1562
     11 C11         2.7314   -4.1706    4.5209 C.3       1 <0>        -0.0136
     12 C12         3.7095   -3.1344    5.0780 C.3       1 <0>        -0.1434
     13 C13         2.4004   -5.1955    5.6075 C.3       1 <0>        -0.1375
     14 C14         3.3588   -4.8715    3.3435 C.ar      1 <0>        -0.0448
     15 C15         2.6863   -4.9348    2.1382 C.ar      1 <0>        -0.1662
     16 C16         3.2625   -5.5782    1.0563 C.ar      1 <0>         0.0717
     17 C17         4.5132   -6.1596    1.1806 C.ar      1 <0>        -0.1279
     18 C18         5.1876   -6.0978    2.3845 C.ar      1 <0>        -0.1718
     19 C19         4.6138   -5.4484    3.4678 C.ar      1 <0>         0.1137
     20 O1          5.2790   -5.3819    4.6515 O.3       1 <0>        -0.3027
     21 C20         6.5672   -5.9979    4.7073 C.3       1 <0>         0.0216
     22 F1          2.6039   -5.6393   -0.1217 F         1 <0>        -0.1403
     23 C21         2.5951   -2.2405    2.2250 C.3       1 <0>         0.4613
     24 F2          2.9330   -0.9754    1.7324 F         1 <0>        -0.1618
     25 F3          3.7623   -2.9655    2.4881 F         1 <0>        -0.1545
     26 F4          1.8276   -2.9215    1.2741 F         1 <0>        -0.1721
     27 O2          2.5611   -1.3640    4.4769 O.3       1 <0>        -0.5210
     28 C22         1.3144    1.3575   -0.9250 C.3       1 <0>        -0.1155
     29 H1          2.6447    3.6215    3.8146 H         1 <0>         0.0700
     30 H2          1.2841    4.4364    3.0067 H         1 <0>         0.0651
     31 H3          1.0006    3.4817    4.4820 H         1 <0>         0.0651
     32 H4          1.6748    3.3404    0.8736 H         1 <0>         0.1195
     33 H5          0.7451   -0.8116    0.5809 H         1 <0>         0.1168
     34 H6          0.9859    1.0551    4.4080 H         1 <0>         0.1184
     35 H7         -0.0354   -1.1345    4.1547 H         1 <0>         0.0989
     36 H8         -0.1330   -1.9143    2.5576 H         1 <0>         0.0935
     37 H9          0.7750   -3.3637    4.9238 H         1 <0>         0.0981
     38 H10         0.9613   -4.0634    3.2977 H         1 <0>         0.0927
     39 H11         3.2208   -2.5595    5.8647 H         1 <0>         0.0567
     40 H12         4.5824   -3.6424    5.4880 H         1 <0>         0.0589
     41 H13         4.0222   -2.4630    4.2782 H         1 <0>         0.0884
     42 H14         1.7750   -5.9826    5.1863 H         1 <0>         0.0533
     43 H15         3.3238   -5.6307    5.9899 H         1 <0>         0.0697
     44 H16         1.8667   -4.7035    6.4207 H         1 <0>         0.0596
     45 H17         1.7105   -4.4824    2.0401 H         1 <0>         0.1638
     46 H18         4.9613   -6.6618    0.3360 H         1 <0>         0.1348
     47 H19         6.1629   -6.5516    2.4812 H         1 <0>         0.1360
     48 H20         6.9870   -5.8725    5.7054 H         1 <0>         0.1005
     49 H21         6.4718   -7.0606    4.4842 H         1 <0>         0.0545
     50 H22         7.2254   -5.5306    3.9749 H         1 <0>         0.0549
     51 H23         2.1109   -1.2287    5.3220 H         1 <0>         0.3876
     52 H24         2.3382    1.1506   -1.2368 H         1 <0>         0.0700
     53 H25         0.6430    0.6251   -1.3733 H         1 <0>         0.0655
     54 H26         1.0304    2.3581   -1.2511 H         1 <0>         0.0662
@<TRIPOS>BOND
     1    1    2 1
     2    1   29 1
     3    1   30 1
     4    1   31 1
     5    2    7 ar
     6    2    3 ar
     7    3    4 ar
     8    3   32 1
     9    4    5 ar
    10    4   28 1
    11    5    6 ar
    12    5   33 1
    13    6    7 ar
    14    6    8 1
    15    7   34 1
    16    8    9 1
    17    8   35 1
    18    8   36 1
    19    9   10 1
    20    9   23 1
    21    9   27 1
    22   10   11 1
    23   10   37 1
    24   10   38 1
    25   11   12 1
    26   11   13 1
    27   11   14 1
    28   12   39 1
    29   12   40 1
    30   12   41 1
    31   13   42 1
    32   13   43 1
    33   13   44 1
    34   14   19 ar
    35   14   15 ar
    36   15   16 ar
    37   15   45 1
    38   16   17 ar
    39   16   22 1
    40   17   18 ar
    41   17   46 1
    42   18   19 ar
    43   18   47 1
    44   19   20 1
    45   20   21 1
    46   21   48 1
    47   21   49 1
    48   21   50 1
    49   23   24 1
    50   23   25 1
    51   23   26 1
    52   27   51 1
    53   28   52 1
    54   28   53 1
    55   28   54 1
@<TRIPOS>MOLECULE
CHEMBL1214968
   41    44     0     0     0
SMALL
USER_CHARGES

@<TRIPOS>ATOM
      1 C1         -0.0162    1.3409    0.0094 C.2       1 <0>        -0.2149
      2 C2          1.3313    1.7689   -0.0012 C.2       1 <0>        -0.1943
      3 C3          2.0923    0.6599   -0.0144 C.2       1 <0>        -0.0272
      4 O1          1.2819   -0.4111   -0.0124 O.3       1 <0>        -0.1606
      5 C4          0.0021   -0.0041    0.0020 C.2       1 <0>        -0.0305
      6 C5          3.5989    0.6249   -0.0294 C.3       1 <0>         0.1932
      7 C6          4.1189    0.2617   -1.4343 C.3       1 <0>        -0.1270
      8 C7          4.8757   -1.0297   -1.2204 C.2       1 <0>         0.1524
      9 N1          4.8195   -1.3602    0.0258 N.2       1 <0>        -0.2419
     10 N2          4.0998   -0.4685    0.8184 N.pl3     1 <0>        -0.4637
     11 C8          3.8889   -0.5919    2.1876 C.ar      1 <0>         0.2736
     12 C9          3.1429    0.3690    2.8650 C.ar      1 <0>        -0.1881
     13 C10         2.9324    0.2497    4.2199 C.ar      1 <0>        -0.0227
     14 C11         3.4685   -0.8380    4.9161 C.ar      1 <0>        -0.0910
     15 C12         4.2171   -1.8013    4.2329 C.ar      1 <0>        -0.0263
     16 C13         4.4193   -1.6793    2.8770 C.ar      1 <0>        -0.1649
     17 C14         3.2517   -0.9649    6.3259 C.1       1 <0>         0.2650
     18 N3          3.0797   -1.0655    7.4443 N.1       1 <0>        -0.4372
     19 C15         5.5684   -1.7923   -2.2711 C.ar      1 <0>        -0.0606
     20 C16         5.5632   -1.3280   -3.5917 C.ar      1 <0>        -0.1011
     21 C17         6.2061   -2.0351   -4.5662 C.ar      1 <0>        -0.0916
     22 C18         6.8708   -3.2246   -4.2450 C.ar      1 <0>        -0.1048
     23 C19         6.8760   -3.6888   -2.9243 C.ar      1 <0>        -0.0926
     24 C20         6.2375   -2.9789   -1.9489 C.ar      1 <0>        -0.0898
     25 C21         7.5639   -3.9875   -5.2962 C.2       1 <0>         0.5152
     26 O2          7.5590   -3.5820   -6.4505 O.co2     1 <0>        -0.6837
     27 O3          8.1448   -5.0271   -5.0155 O.co2     1 <0>        -0.6827
     28 H1         -0.8920    1.9726    0.0252 H         1 <0>         0.1498
     29 H2          1.6822    2.7903    0.0004 H         1 <0>         0.1508
     30 H3         -0.8653   -0.6475    0.0072 H         1 <0>         0.2026
     31 H4          4.0067    1.5814    0.2976 H         1 <0>         0.1215
     32 H5          3.2872    0.1081   -2.1219 H         1 <0>         0.1088
     33 H6          4.7862    1.0385   -1.8076 H         1 <0>         0.1140
     34 H7          2.7294    1.2091    2.3268 H         1 <0>         0.1311
     35 H8          2.3540    0.9955    4.7449 H         1 <0>         0.1327
     36 H9          4.6328   -2.6423    4.7679 H         1 <0>         0.1344
     37 H10         4.9937   -2.4253    2.3479 H         1 <0>         0.1430
     38 H11         5.0501   -0.4106   -3.8395 H         1 <0>         0.1196
     39 H12         6.2018   -1.6771   -5.5851 H         1 <0>         0.1329
     40 H13         7.3884   -4.6066   -2.6765 H         1 <0>         0.1323
     41 H14         6.2453   -3.3346   -0.9292 H         1 <0>         0.1243
@<TRIPOS>BOND
     1    1    5 2
     2    1    2 1
     3    1   28 1
     4    2    3 2
     5    2   29 1
     6    3    4 1
     7    3    6 1
     8    4    5 1
     9    5   30 1
    10    6   10 1
    11    6    7 1
    12    6   31 1
    13    7    8 1
    14    7   32 1
    15    7   33 1
    16    8    9 2
    17    8   19 1
    18    9   10 1
    19   10   11 1
    20   11   16 ar
    21   11   12 ar
    22   12   13 ar
    23   12   34 1
    24   13   14 ar
    25   13   35 1
    26   14   15 ar
    27   14   17 1
    28   15   16 ar
    29   15   36 1
    30   16   37 1
    31   17   18 3
    32   19   24 ar
    33   19   20 ar
    34   20   21 ar
    35   20   38 1
    36   21   22 ar
    37   21   39 1
    38   22   23 ar
    39   22   25 1
    40   23   24 ar
    41   23   40 1
    42   24   41 1
    43   25   26 2
    44   25   27 1
@<TRIPOS>MOLECULE
CHEMBL1214968__1
   41    44     0     0     0
SMALL
USER_CHARGES

@<TRIPOS>ATOM
      1 C1         -0.0162    1.3409    0.0094 C.2       1 <0>        -0.2149
      2 C2          1.3313    1.7689   -0.0012 C.2       1 <0>        -0.1943
      3 C3          2.0923    0.6599   -0.0144 C.2       1 <0>        -0.0272
      4 O1          1.2819   -0.4111   -0.0124 O.3       1 <0>        -0.1606
      5 C4          0.0021   -0.0041    0.0020 C.2       1 <0>        -0.0305
      6 C5          3.5989    0.6249   -0.0294 C.3       1 <0>         0.1932
      7 C6          4.1464    0.2473    1.3612 C.3       1 <0>        -0.1270
      8 C7          4.8987   -1.0418    1.1191 C.2       1 <0>         0.1524
      9 N1          4.8180   -1.3594   -0.1291 N.2       1 <0>        -0.2419
     10 N2          4.0829   -0.4596   -0.8981 N.pl3     1 <0>        -0.4637
     11 C8          3.8450   -0.5690   -2.2641 C.ar      1 <0>         0.2737
     12 C9          3.0955    0.4049   -2.9189 C.ar      1 <0>        -0.1880
     13 C10         2.8584    0.2995   -4.2706 C.ar      1 <0>        -0.0226
     14 C11         3.3710   -0.7869   -4.9862 C.ar      1 <0>        -0.0910
     15 C12         4.1232   -1.7631   -4.3257 C.ar      1 <0>        -0.0262
     16 C13         4.3616   -1.6490   -2.9750 C.ar      1 <0>        -0.1650
     17 C14         3.1256   -0.8997   -6.3925 C.1       1 <0>         0.2650
     18 N3          2.9310   -0.9892   -7.5081 N.1       1 <0>        -0.4372
     19 C15         5.6132   -1.8143    2.1477 C.ar      1 <0>        -0.0606
     20 C16         5.6256   -1.3690    3.4748 C.ar      1 <0>        -0.1011
     21 C17         6.2879   -2.0857    4.4290 C.ar      1 <0>        -0.0917
     22 C18         6.9549   -3.2663    4.0805 C.ar      1 <0>        -0.1048
     23 C19         6.9424   -3.7116    2.7533 C.ar      1 <0>        -0.0926
     24 C20         6.2756   -2.9975    1.8002 C.ar      1 <0>        -0.0898
     25 C21         7.6697   -4.0392    5.1096 C.2       1 <0>         0.5152
     26 O2          7.6809   -3.6498    6.2694 O.co2     1 <0>        -0.6837
     27 O3          8.2525   -5.0709    4.8051 O.co2     1 <0>        -0.6826
     28 H1         -0.8920    1.9726    0.0252 H         1 <0>         0.1498
     29 H2          1.6822    2.7903    0.0004 H         1 <0>         0.1507
     30 H3         -0.8653   -0.6475    0.0072 H         1 <0>         0.2026
     31 H4          4.0003    1.5848   -0.3545 H         1 <0>         0.1215
     32 H5          4.8211    1.0203    1.7292 H         1 <0>         0.1140
     33 H6          3.3284    0.0864    2.0634 H         1 <0>         0.1088
     34 H7          2.6996    1.2436   -2.3656 H         1 <0>         0.1310
     35 H8          2.2767    1.0549   -4.7779 H         1 <0>         0.1327
     36 H9          4.5201   -2.6035   -4.8757 H         1 <0>         0.1344
     37 H10         4.9463   -2.4004   -2.4651 H         1 <0>         0.1430
     38 H11         5.1114   -0.4581    3.7435 H         1 <0>         0.1196
     39 H12         6.2978   -1.7420    5.4528 H         1 <0>         0.1329
     40 H13         7.4572   -4.6221    2.4844 H         1 <0>         0.1323
     41 H14         6.2622   -3.3434    0.7772 H         1 <0>         0.1243
@<TRIPOS>BOND
     1    1    5 2
     2    1    2 1
     3    1   28 1
     4    2    3 2
     5    2   29 1
     6    3    4 1
     7    3    6 1
     8    4    5 1
     9    5   30 1
    10    6   10 1
    11    6    7 1
    12    6   31 1
    13    7    8 1
    14    7   32 1
    15    7   33 1
    16    8    9 2
    17    8   19 1
    18    9   10 1
    19   10   11 1
    20   11   16 ar
    21   11   12 ar
    22   12   13 ar
    23   12   34 1
    24   13   14 ar
    25   13   35 1
    26   14   15 ar
    27   14   17 1
    28   15   16 ar
    29   15   36 1
    30   16   37 1
    31   17   18 3
    32   19   24 ar
    33   19   20 ar
    34   20   21 ar
    35   20   38 1
    36   21   22 ar
    37   21   39 1
    38   22   23 ar
    39   22   25 1
    40   23   24 ar
    41   23   40 1
    42   24   41 1
    43   25   26 2
    44   25   27 1
@<TRIPOS>MOLECULE
CHEMBL1214969
   41    44     0     0     0
SMALL
USER_CHARGES

@<TRIPOS>ATOM
      1 C1         -0.0163    1.3513    0.0095 C.2       1 <0>        -0.1597
      2 C2          1.1833    2.0380    0.0017 C.2       1 <0>        -0.1435
      3 C3          2.3426    1.3358   -0.0131 C.2       1 <0>        -0.1655
      4 S1          1.7535   -0.3495   -0.0166 S.3       1 <0>         0.0754
      5 C4          0.0021   -0.0041    0.0020 C.2       1 <0>        -0.1747
      6 C5          3.7608    1.8454   -0.0244 C.3       1 <0>         0.1975
      7 C6          4.3785    1.6990   -1.4290 C.3       1 <0>        -0.1261
      8 C7          5.5490    0.7657   -1.2171 C.2       1 <0>         0.1520
      9 N1          5.6140    0.4324    0.0279 N.2       1 <0>        -0.2424
     10 N2          4.6205    1.0023    0.8214 N.pl3     1 <0>        -0.4649
     11 C8          4.4663    0.8060    2.1896 C.ar      1 <0>         0.2733
     12 C9          3.4236    1.4316    2.8681 C.ar      1 <0>        -0.1863
     13 C10         3.2684    1.2393    4.2221 C.ar      1 <0>        -0.0233
     14 C11         4.1591    0.4149    4.9162 C.ar      1 <0>        -0.0904
     15 C12         5.2051   -0.2119    4.2321 C.ar      1 <0>        -0.0265
     16 C13         5.3516   -0.0201    2.8771 C.ar      1 <0>        -0.1652
     17 C14         4.0007    0.2131    6.3251 C.1       1 <0>         0.2649
     18 N3          3.8750    0.0531    7.4427 N.1       1 <0>        -0.4375
     19 C15         6.4712    0.3075   -2.2684 C.ar      1 <0>        -0.0607
     20 C16         6.3010    0.7437   -3.5875 C.ar      1 <0>        -0.1009
     21 C17         7.1566    0.3191   -4.5625 C.ar      1 <0>        -0.0917
     22 C18         8.2044   -0.5527   -4.2433 C.ar      1 <0>        -0.1047
     23 C19         8.3745   -0.9889   -2.9240 C.ar      1 <0>        -0.0927
     24 C20         7.5221   -0.5600   -1.9481 C.ar      1 <0>        -0.0898
     25 C21         9.1270   -1.0111   -5.2950 C.2       1 <0>         0.5152
     26 O1          8.9780   -0.6301   -6.4481 O.co2     1 <0>        -0.6837
     27 O2         10.0427   -1.7730   -5.0159 O.co2     1 <0>        -0.6827
     28 H1         -0.9542    1.8866    0.0258 H         1 <0>         0.1338
     29 H2          1.1967    3.1179    0.0070 H         1 <0>         0.1343
     30 H3         -0.8275   -0.6955    0.0065 H         1 <0>         0.1851
     31 H4          3.7967    2.8833    0.3066 H         1 <0>         0.1120
     32 H5          3.6587    1.2589   -2.1192 H         1 <0>         0.1084
     33 H6          4.7221    2.6653   -1.7982 H         1 <0>         0.1124
     34 H7          2.7362    2.0686    2.3314 H         1 <0>         0.1312
     35 H8          2.4597    1.7250    4.7478 H         1 <0>         0.1321
     36 H9          5.8949   -0.8490    4.7656 H         1 <0>         0.1341
     37 H10         6.1568   -0.5074    2.3472 H         1 <0>         0.1428
     38 H11         5.4925    1.4160   -3.8339 H         1 <0>         0.1195
     39 H12         7.0250    0.6555   -5.5804 H         1 <0>         0.1327
     40 H13         9.1826   -1.6618   -2.6777 H         1 <0>         0.1321
     41 H14         7.6560   -0.8930   -0.9295 H         1 <0>         0.1243
@<TRIPOS>BOND
     1    1    5 2
     2    1    2 1
     3    1   28 1
     4    2    3 2
     5    2   29 1
     6    3    4 1
     7    3    6 1
     8    4    5 1
     9    5   30 1
    10    6   10 1
    11    6    7 1
    12    6   31 1
    13    7    8 1
    14    7   32 1
    15    7   33 1
    16    8    9 2
    17    8   19 1
    18    9   10 1
    19   10   11 1
    20   11   16 ar
    21   11   12 ar
    22   12   13 ar
    23   12   34 1
    24   13   14 ar
    25   13   35 1
    26   14   15 ar
    27   14   17 1
    28   15   16 ar
    29   15   36 1
    30   16   37 1
    31   17   18 3
    32   19   24 ar
    33   19   20 ar
    34   20   21 ar
    35   20   38 1
    36   21   22 ar
    37   21   39 1
    38   22   23 ar
    39   22   25 1
    40   23   24 ar
    41   23   40 1
    42   24   41 1
    43   25   26 2
    44   25   27 1
@<TRIPOS>MOLECULE
CHEMBL1214969__1
   41    44     0     0     0
SMALL
USER_CHARGES

@<TRIPOS>ATOM
      1 C1         -0.0163    1.3513    0.0095 C.2       1 <0>        -0.1597
      2 C2          1.1833    2.0380    0.0017 C.2       1 <0>        -0.1434
      3 C3          2.3426    1.3358   -0.0131 C.2       1 <0>        -0.1655
      4 S1          1.7535   -0.3495   -0.0166 S.3       1 <0>         0.0753
      5 C4          0.0021   -0.0041    0.0020 C.2       1 <0>        -0.1747
      6 C5          3.7608    1.8454   -0.0244 C.3       1 <0>         0.1975
      7 C6          4.4057    1.6849    1.3665 C.3       1 <0>        -0.1260
      8 C7          5.5718    0.7538    1.1224 C.2       1 <0>         0.1520
      9 N1          5.6125    0.4331   -0.1270 N.2       1 <0>        -0.2424
     10 N2          4.6038    1.0110   -0.8952 N.pl3     1 <0>        -0.4649
     11 C8          4.4230    0.8286   -2.2621 C.ar      1 <0>         0.2734
     12 C9          3.3741    1.4699   -2.9158 C.ar      1 <0>        -0.1862
     13 C10         3.1926    1.2913   -4.2684 C.ar      1 <0>        -0.0232
     14 C11         4.0627    0.4650   -4.9860 C.ar      1 <0>        -0.0905
     15 C12         5.1150   -0.1776   -4.3266 C.ar      1 <0>        -0.0265
     16 C13         5.2947    0.0095   -2.9749 C.ar      1 <0>        -0.1652
     17 C14         3.8763    0.2767   -6.3933 C.1       1 <0>         0.2649
     18 N3          3.7284    0.1274   -7.5097 N.1       1 <0>        -0.4375
     19 C15         6.5151    0.2863    2.1505 C.ar      1 <0>        -0.0607
     20 C16         6.3647    0.7012    3.4789 C.ar      1 <0>        -0.1008
     21 C17         7.2393    0.2672    4.4327 C.ar      1 <0>        -0.0917
     22 C18         8.2869   -0.5929    4.0823 C.ar      1 <0>        -0.1047
     23 C19         8.4373   -1.0078    2.7537 C.ar      1 <0>        -0.0927
     24 C20         7.5594   -0.5780    1.8011 C.ar      1 <0>        -0.0898
     25 C21         9.2306   -1.0606    5.1109 C.2       1 <0>         0.5152
     26 O1          9.0994   -0.6977    6.2719 O.co2     1 <0>        -0.6837
     27 O2         10.1461   -1.8123    4.8047 O.co2     1 <0>        -0.6827
     28 H1         -0.9542    1.8866    0.0258 H         1 <0>         0.1338
     29 H2          1.1967    3.1179    0.0070 H         1 <0>         0.1343
     30 H3         -0.8275   -0.6955    0.0065 H         1 <0>         0.1851
     31 H4          3.7903    2.8866   -0.3455 H         1 <0>         0.1120
     32 H5          4.7565    2.6474    1.7386 H         1 <0>         0.1124
     33 H6          3.6995    1.2377    2.0660 H         1 <0>         0.1084
     34 H7          2.7021    2.1078   -2.3609 H         1 <0>         0.1311
     35 H8          2.3786    1.7887   -4.7749 H         1 <0>         0.1321
     36 H9          5.7885   -0.8168   -4.8781 H         1 <0>         0.1340
     37 H10         6.1099   -0.4831   -2.4658 H         1 <0>         0.1428
     38 H11         5.5568    1.3650    3.7491 H         1 <0>         0.1195
     39 H12         7.1235    0.5876    5.4575 H         1 <0>         0.1327
     40 H13         9.2456   -1.6710    2.4833 H         1 <0>         0.1321
     41 H14         7.6727   -0.9016    0.7770 H         1 <0>         0.1242
@<TRIPOS>BOND
     1    1    5 2
     2    1    2 1
     3    1   28 1
     4    2    3 2
     5    2   29 1
     6    3    4 1
     7    3    6 1
     8    4    5 1
     9    5   30 1
    10    6   10 1
    11    6    7 1
    12    6   31 1
    13    7    8 1
    14    7   32 1
    15    7   33 1
    16    8    9 2
    17    8   19 1
    18    9   10 1
    19   10   11 1
    20   11   16 ar
    21   11   12 ar
    22   12   13 ar
    23   12   34 1
    24   13   14 ar
    25   13   35 1
    26   14   15 ar
    27   14   17 1
    28   15   16 ar
    29   15   36 1
    30   16   37 1
    31   17   18 3
    32   19   24 ar
    33   19   20 ar
    34   20   21 ar
    35   20   38 1
    36   21   22 ar
    37   21   39 1
    38   22   23 ar
    39   22   25 1
    40   23   24 ar
    41   23   40 1
    42   24   41 1
    43   25   26 2
    44   25   27 1
@<TRIPOS>MOLECULE
CHEMBL1215555
   46    50     0     0     0
SMALL
USER_CHARGES

@<TRIPOS>ATOM
      1 C1         -0.0167    1.3782    0.0096 C.ar      1 <0>        -0.0721
      2 C2          1.1703    2.0860    0.0021 C.ar      1 <0>        -0.1532
      3 C3          2.3786    1.4101   -0.0131 C.ar      1 <0>         0.1047
      4 C4          2.3962    0.0256   -0.0207 C.ar      1 <0>        -0.1503
      5 C5          1.2079   -0.6800   -0.0132 C.ar      1 <0>        -0.0504
      6 C6          0.0021   -0.0041    0.0020 C.ar      1 <0>        -0.0964
      7 C7         -1.2930   -0.7747    0.0103 C.3       1 <0>         0.1627
      8 H1         -2.1065   -0.1519    0.3822 H         1 <0>         0.1164
      9 C8         -1.6149   -1.3026   -1.3895 C.3       1 <0>         0.0806
     10 H2         -2.6421   -1.0710   -1.6712 H         1 <0>         0.1057
     11 C9         -1.4004   -2.8088   -1.2589 C.2       1 <0>         0.1243
     12 N1         -1.2123   -3.1087   -0.0328 N.2       1 <0>        -0.2238
     13 N2         -1.1635   -1.9996    0.8220 N.pl3     1 <0>        -0.4656
     14 C10        -1.0172   -2.0433    2.2044 C.ar      1 <0>         0.2883
     15 C11        -0.9891   -0.8595    2.9379 C.ar      1 <0>        -0.1817
     16 C12        -0.8450   -0.8984    4.3057 C.ar      1 <0>        -0.0099
     17 C13        -0.7264   -2.1285    4.9604 C.ar      1 <0>        -0.0798
     18 C14        -0.7548   -3.3164    4.2212 C.ar      1 <0>         0.0505
     19 C15        -0.9048   -3.2700    2.8520 C.ar      1 <0>        -0.1599
     20 Cl1        -0.6075   -4.8463    5.0283 Cl        1 <0>        -0.0481
     21 C16        -0.5757   -2.1724    6.3838 C.1       1 <0>         0.2596
     22 N3         -0.4562   -2.2072    7.5129 N.1       1 <0>        -0.4163
     23 C17        -1.3187   -3.6247   -2.4830 C.ar      1 <0>        -0.0491
     24 C18        -1.4803   -5.0048   -2.4784 C.ar      1 <0>        -0.0838
     25 C19        -1.3808   -5.7000   -3.6525 C.ar      1 <0>        -0.0873
     26 C20        -1.1166   -5.0135   -4.8438 C.ar      1 <0>        -0.1014
     27 C21        -0.9594   -3.6233   -4.8427 C.ar      1 <0>        -0.0785
     28 C22        -1.0634   -2.9218   -3.6741 C.ar      1 <0>        -0.1094
     29 C23        -0.9233   -1.4254   -3.6775 C.3       1 <0>         0.1045
     30 O1         -0.6947   -0.8584   -2.3862 O.3       1 <0>        -0.3480
     31 C24        -1.0030   -5.7603   -6.1074 C.2       1 <0>         0.5156
     32 O2         -1.1392   -6.9762   -6.1137 O.co2     1 <0>        -0.6801
     33 O3         -0.7723   -5.1652   -7.1512 O.co2     1 <0>        -0.6816
     34 F1          3.5396    2.1009   -0.0209 F         1 <0>        -0.1403
     35 H3         -0.9592    1.9052    0.0260 H         1 <0>         0.1334
     36 H4          1.1554    3.1659    0.0077 H         1 <0>         0.1362
     37 H5          3.3381   -0.5027   -0.0329 H         1 <0>         0.1349
     38 H6          1.2213   -1.7599   -0.0195 H         1 <0>         0.1261
     39 H7         -1.0804    0.0904    2.4322 H         1 <0>         0.1397
     40 H8         -0.8231    0.0202    4.8732 H         1 <0>         0.1450
     41 H9         -0.9310   -4.1861    2.2808 H         1 <0>         0.1538
     42 H10        -1.6827   -5.5253   -1.5540 H         1 <0>         0.1274
     43 H11        -1.5050   -6.7728   -3.6603 H         1 <0>         0.1367
     44 H12        -0.7552   -3.1034   -5.7670 H         1 <0>         0.1363
     45 H13        -0.0947   -1.1538   -4.3315 H         1 <0>         0.1147
     46 H14        -1.8385   -0.9900   -4.0789 H         1 <0>         0.0696
@<TRIPOS>BOND
     1    1    6 ar
     2    1    2 ar
     3    1   35 1
     4    2    3 ar
     5    2   36 1
     6    3    4 ar
     7    3   34 1
     8    4    5 ar
     9    4   37 1
    10    5    6 ar
    11    5   38 1
    12    6    7 1
    13    7    8 1
    14    7   13 1
    15    7    9 1
    16    9   10 1
    17    9   30 1
    18    9   11 1
    19   11   12 2
    20   11   23 1
    21   12   13 1
    22   13   14 1
    23   14   19 ar
    24   14   15 ar
    25   15   16 ar
    26   15   39 1
    27   16   17 ar
    28   16   40 1
    29   17   18 ar
    30   17   21 1
    31   18   19 ar
    32   18   20 1
    33   19   41 1
    34   21   22 3
    35   23   28 ar
    36   23   24 ar
    37   24   25 ar
    38   24   42 1
    39   25   26 ar
    40   25   43 1
    41   26   27 ar
    42   26   31 1
    43   27   28 ar
    44   27   44 1
    45   28   29 1
    46   29   30 1
    47   29   45 1
    48   29   46 1
    49   31   32 2
    50   31   33 1
@<TRIPOS>MOLECULE
CHEMBL1215486
   54    58     0     0     0
SMALL
USER_CHARGES

@<TRIPOS>ATOM
      1 C1         -0.8144    1.6155   -0.4634 C.3       1 <0>        -0.1243
      2 C2         -0.4887    0.1482   -0.3533 C.ar      1 <0>         0.0093
      3 C3         -0.4074   -0.6266   -1.4882 C.ar      1 <0>        -0.1724
      4 C4         -0.1066   -1.9822   -1.3874 C.ar      1 <0>         0.2813
      5 C5          0.1130   -2.5586   -0.1388 C.ar      1 <0>        -0.1991
      6 C6          0.0328   -1.7895    0.9995 C.ar      1 <0>        -0.0182
      7 C7         -0.2631   -0.4263    0.9010 C.ar      1 <0>        -0.0992
      8 C8         -0.3406    0.3783    2.0831 C.1       1 <0>         0.2679
      9 N1         -0.4020    1.0166    3.0208 N.1       1 <0>        -0.4402
     10 N2         -0.0257   -2.7624   -2.5359 N.pl3     1 <0>        -0.4657
     11 C9          0.1454   -4.2269   -2.5687 C.3       1 <0>         0.1216
     12 H1          1.0197   -4.5245   -1.9897 H         1 <0>         0.0906
     13 C10         0.3552   -4.5274   -4.0554 C.3       1 <0>        -0.0999
     14 H2          1.3768   -4.8517   -4.2531 H         1 <0>         0.1026
     15 C11        -0.6605   -5.5308   -4.6027 C.3       1 <0>        -0.2050
     16 C12        -0.4501   -5.6872   -6.1073 C.3       1 <0>        -0.0803
     17 C13        -0.4233   -4.3792   -6.8457 C.ar      1 <0>        -0.0666
     18 C14        -0.6487   -4.3701   -8.1969 C.ar      1 <0>        -0.0903
     19 C15        -0.6175   -3.1680   -8.9097 C.ar      1 <0>        -0.1057
     20 C16        -0.3538   -1.9605   -8.2520 C.ar      1 <0>        -0.0932
     21 C17        -0.1321   -1.9610   -6.9033 C.ar      1 <0>        -0.0917
     22 C18        -0.1715   -3.1608   -6.1966 C.ar      1 <0>        -0.0502
     23 C19         0.0515   -3.1966   -4.7354 C.2       1 <0>         0.1513
     24 N3         -0.0992   -2.2884   -3.8479 N.2       1 <0>        -0.2417
     25 C20        -0.8630   -3.1719  -10.3613 C.2       1 <0>         0.5157
     26 O1         -1.0934   -4.2250  -10.9400 O.co2     1 <0>        -0.6843
     27 O2         -0.8366   -2.1220  -10.9890 O.co2     1 <0>        -0.6832
     28 C21        -1.1097   -4.9281   -2.0455 C.3       1 <0>        -0.0953
     29 C22        -0.9017   -6.4567   -2.0495 C.3       1 <0>        -0.1282
     30 C23        -2.2829   -7.0270   -2.4568 C.3       1 <0>        -0.1196
     31 C24        -2.7736   -6.0099   -3.5170 C.3       1 <0>        -0.1632
     32 C25        -2.2999   -4.6441   -2.9785 C.3       1 <0>        -0.1286
     33 H3          0.1085    2.1854   -0.5710 H         1 <0>         0.0796
     34 H4         -1.4483    1.7826   -1.3343 H         1 <0>         0.0782
     35 H5         -1.3389    1.9396    0.4354 H         1 <0>         0.0660
     36 H6         -0.5776   -0.1825   -2.4579 H         1 <0>         0.1412
     37 H7          0.3462   -3.6105   -0.0638 H         1 <0>         0.1310
     38 H8          0.2028   -2.2372    1.9675 H         1 <0>         0.1326
     39 H9         -0.5205   -6.4946   -4.1132 H         1 <0>         0.0944
     40 H10        -1.6704   -5.1677   -4.4120 H         1 <0>         0.1598
     41 H11         0.4951   -6.2032   -6.2760 H         1 <0>         0.0725
     42 H12        -1.2563   -6.2998   -6.5109 H         1 <0>         0.0787
     43 H13        -0.8512   -5.2964   -8.7140 H         1 <0>         0.1315
     44 H14        -0.3253   -1.0344   -8.8070 H         1 <0>         0.1325
     45 H15         0.0724   -1.0346   -6.3873 H         1 <0>         0.1230
     46 H16        -1.3360   -4.5841   -1.0362 H         1 <0>         0.0816
     47 H17        -0.1429   -6.7364   -2.7804 H         1 <0>         0.0854
     48 H18        -0.6226   -6.8064   -1.0556 H         1 <0>         0.0652
     49 H19        -2.1772   -8.0199   -2.8940 H         1 <0>         0.0695
     50 H20        -2.9587   -7.0501   -1.6019 H         1 <0>         0.0657
     51 H21        -2.3171   -6.2175   -4.4848 H         1 <0>         0.1100
     52 H22        -3.8606   -6.0335   -3.5939 H         1 <0>         0.0628
     53 H23        -3.1042   -4.1629   -2.4218 H         1 <0>         0.0616
     54 H24        -1.9833   -4.0066   -3.8040 H         1 <0>         0.0832
@<TRIPOS>BOND
     1    1    2 1
     2    1   33 1
     3    1   34 1
     4    1   35 1
     5    2    7 ar
     6    2    3 ar
     7    3    4 ar
     8    3   36 1
     9    4    5 ar
    10    4   10 1
    11    5    6 ar
    12    5   37 1
    13    6    7 ar
    14    6   38 1
    15    7    8 1
    16    8    9 3
    17   10   24 1
    18   10   11 1
    19   11   12 1
    20   11   13 1
    21   11   28 1
    22   13   14 1
    23   13   23 1
    24   13   15 1
    25   15   16 1
    26   15   39 1
    27   15   40 1
    28   16   17 1
    29   16   41 1
    30   16   42 1
    31   17   22 ar
    32   17   18 ar
    33   18   19 ar
    34   18   43 1
    35   19   20 ar
    36   19   25 1
    37   20   21 ar
    38   20   44 1
    39   21   22 ar
    40   21   45 1
    41   22   23 1
    42   23   24 2
    43   25   26 2
    44   25   27 1
    45   28   32 1
    46   28   29 1
    47   28   46 1
    48   29   30 1
    49   29   47 1
    50   29   48 1
    51   30   31 1
    52   30   49 1
    53   30   50 1
    54   31   32 1
    55   31   51 1
    56   31   52 1
    57   32   53 1
    58   32   54 1
@<TRIPOS>MOLECULE
CHEMBL1215487
   55    59     0     0     0
SMALL
USER_CHARGES

@<TRIPOS>ATOM
      1 C1         -0.2577    1.8705    0.9740 C.3       1 <0>         0.0242
      2 O1         -0.1009    0.4656    0.7648 O.3       1 <0>        -0.3100
      3 C2         -1.2247   -0.2467    0.4974 C.ar      1 <0>         0.2186
      4 C3         -2.4518    0.3893    0.4313 C.ar      1 <0>        -0.2650
      5 C4         -3.5990   -0.3460    0.1565 C.ar      1 <0>         0.3139
      6 C5         -3.5175   -1.7216   -0.0520 C.ar      1 <0>        -0.2236
      7 C6         -2.3115   -2.3585    0.0112 C.ar      1 <0>         0.0124
      8 C7         -1.1473   -1.6315    0.2809 C.ar      1 <0>        -0.1270
      9 C8          0.1184   -2.2984    0.3413 C.1       1 <0>         0.2747
     10 N1          1.1226   -2.8275    0.3892 N.1       1 <0>        -0.4411
     11 N2         -4.8326    0.2933    0.0900 N.pl3     1 <0>        -0.4636
     12 C9         -6.1394   -0.3752   -0.0532 C.3       1 <0>         0.1215
     13 H1         -6.1408   -1.0338   -0.9217 H         1 <0>         0.0924
     14 C10        -7.1137    0.7883   -0.2569 C.3       1 <0>        -0.1005
     15 H2         -7.5103    0.7991   -1.2722 H         1 <0>         0.1035
     16 C11        -8.2395    0.8023    0.7778 C.3       1 <0>        -0.2051
     17 C12        -9.0955    2.0499    0.5707 C.3       1 <0>        -0.0806
     18 C13        -8.2961    3.3209    0.5191 C.ar      1 <0>        -0.0656
     19 C14        -8.9264    4.5160    0.7445 C.ar      1 <0>        -0.0903
     20 C15        -8.2082    5.7141    0.6906 C.ar      1 <0>        -0.1049
     21 C16        -6.8376    5.7067    0.4042 C.ar      1 <0>        -0.0934
     22 C17        -6.2010    4.5177    0.1823 C.ar      1 <0>        -0.0916
     23 C18        -6.9201    3.3263    0.2440 C.ar      1 <0>        -0.0513
     24 C19        -6.2610    2.0216    0.0215 C.2       1 <0>         0.1545
     25 N3         -5.0378    1.6736    0.1538 N.2       1 <0>        -0.2449
     26 C20        -8.8973    6.9917    0.9359 C.2       1 <0>         0.5155
     27 O2        -10.0949    7.0026    1.1860 O.co2     1 <0>        -0.6838
     28 O3         -8.2724    8.0426    0.8896 O.co2     1 <0>        -0.6830
     29 C21        -6.4865   -1.1576    1.2150 C.3       1 <0>        -0.0958
     30 C22        -7.8367   -1.8820    1.0361 C.3       1 <0>        -0.1281
     31 C23        -8.5087   -1.7823    2.4281 C.3       1 <0>        -0.1197
     32 C24        -8.1093   -0.3619    2.8994 C.3       1 <0>        -0.1632
     33 C25        -6.6599   -0.1911    2.3997 C.3       1 <0>        -0.1289
     34 H3          0.7149    2.3183    1.1777 H         1 <0>         0.1027
     35 H4         -0.6872    2.3251    0.0812 H         1 <0>         0.0629
     36 H5         -0.9206    2.0397    1.8226 H         1 <0>         0.0628
     37 H6         -2.5181    1.4550    0.5931 H         1 <0>         0.1477
     38 H7         -4.4130   -2.2868   -0.2643 H         1 <0>         0.1332
     39 H8         -2.2557   -3.4247   -0.1514 H         1 <0>         0.1397
     40 H9         -8.8571   -0.0876    0.6561 H         1 <0>         0.0950
     41 H10        -7.8123    0.8159    1.7805 H         1 <0>         0.1599
     42 H11        -9.6455    1.9449   -0.3645 H         1 <0>         0.0729
     43 H12        -9.8127    2.1212    1.3885 H         1 <0>         0.0790
     44 H13        -9.9836    4.5328    0.9647 H         1 <0>         0.1319
     45 H14        -6.2871    6.6347    0.3585 H         1 <0>         0.1326
     46 H15        -5.1443    4.5020   -0.0403 H         1 <0>         0.1223
     47 H16        -5.7005   -1.8801    1.4345 H         1 <0>         0.0830
     48 H17        -8.4429   -1.3787    0.2829 H         1 <0>         0.0853
     49 H18        -7.6767   -2.9252    0.7636 H         1 <0>         0.0659
     50 H19        -9.5916   -1.8703    2.3414 H         1 <0>         0.0696
     51 H20        -8.1113   -2.5395    3.1040 H         1 <0>         0.0660
     52 H21        -8.7595    0.3869    2.4472 H         1 <0>         0.1099
     53 H22        -8.1483   -0.2958    3.9867 H         1 <0>         0.0628
     54 H23        -5.9586   -0.4451    3.1945 H         1 <0>         0.0618
     55 H24        -6.4967    0.8354    2.0712 H         1 <0>         0.0826
@<TRIPOS>BOND
     1    1    2 1
     2    1   34 1
     3    1   35 1
     4    1   36 1
     5    2    3 1
     6    3    8 ar
     7    3    4 ar
     8    4    5 ar
     9    4   37 1
    10    5    6 ar
    11    5   11 1
    12    6    7 ar
    13    6   38 1
    14    7    8 ar
    15    7   39 1
    16    8    9 1
    17    9   10 3
    18   11   25 1
    19   11   12 1
    20   12   13 1
    21   12   14 1
    22   12   29 1
    23   14   15 1
    24   14   24 1
    25   14   16 1
    26   16   17 1
    27   16   40 1
    28   16   41 1
    29   17   18 1
    30   17   42 1
    31   17   43 1
    32   18   23 ar
    33   18   19 ar
    34   19   20 ar
    35   19   44 1
    36   20   21 ar
    37   20   26 1
    38   21   22 ar
    39   21   45 1
    40   22   23 ar
    41   22   46 1
    42   23   24 1
    43   24   25 2
    44   26   27 2
    45   26   28 1
    46   29   33 1
    47   29   30 1
    48   29   47 1
    49   30   31 1
    50   30   48 1
    51   30   49 1
    52   31   32 1
    53   31   50 1
    54   31   51 1
    55   32   33 1
    56   32   52 1
    57   32   53 1
    58   33   54 1
    59   33   55 1
@<TRIPOS>MOLECULE
CHEMBL372106
   51    54     0     0     0
SMALL
USER_CHARGES

@<TRIPOS>ATOM
      1 C1          0.1501    1.4401   -0.0059 C.3       1 <0>        -0.1353
      2 C2          0.1013   -0.0661   -0.0006 C.2       1 <0>        -0.0542
      3 C3         -1.0695   -0.6925   -0.0020 C.2       1 <0>        -0.2207
      4 C4         -2.4203   -0.0906   -0.0267 C.2       1 <0>         0.3899
      5 O1         -2.6827    1.0764   -0.2229 O.2       1 <0>        -0.4432
      6 C5         -3.4323   -1.2051    0.2557 C.3       1 <0>        -0.1690
      7 C6         -2.5463   -2.2781    0.9101 C.3       1 <0>        -0.0671
      8 C7         -1.2978   -2.1933    0.0027 C.3       1 <0>        -0.0151
      9 C8         -0.1782   -3.0163    0.5852 C.3       1 <0>        -0.1037
     10 C9         -0.6939   -4.3635    1.1078 C.3       1 <0>        -0.1125
     11 C10        -2.0752   -4.7144    0.5721 C.3       1 <0>        -0.0672
     12 C11        -3.1049   -3.6676    0.9845 C.3       1 <0>        -0.0684
     13 C12        -4.4170   -3.8367    0.2354 C.3       1 <0>        -0.1090
     14 C13        -4.7512   -5.3184    0.0583 C.3       1 <0>        -0.0961
     15 C14        -4.0221   -6.1228    1.1078 C.2       1 <0>        -0.0144
     16 C15        -4.7021   -6.8527    1.9852 C.2       1 <0>        -0.2413
     17 C16        -4.0190   -7.6325    3.0137 C.2       1 <0>         0.3876
     18 O2         -4.6634   -8.3394    3.7624 O.2       1 <0>        -0.4656
     19 C17        -2.5209   -7.5621    3.1540 C.3       1 <0>        -0.1694
     20 C18        -2.0042   -6.2525    2.5554 C.3       1 <0>        -0.1062
     21 C19        -2.5140   -6.0814    1.1292 C.3       1 <0>        -0.0363
     22 C20        -1.9570   -7.1861    0.2286 C.3       1 <0>        -0.1403
     23 C21        -1.5853   -2.5926   -1.4445 C.3       1 <0>        -0.1462
     24 H1          1.1890    1.7700   -0.0037 H         1 <0>         0.0662
     25 H2         -0.3489    1.8166   -0.8988 H         1 <0>         0.0787
     26 H3         -0.3545    1.8231    0.8811 H         1 <0>         0.0740
     27 H4          1.0186   -0.6361    0.0044 H         1 <0>         0.1258
     28 H5         -4.1885   -0.8556    0.9627 H         1 <0>         0.0924
     29 H6         -3.8979   -1.5553   -0.6570 H         1 <0>         0.1095
     30 H7         -2.2805   -1.9352    1.9302 H         1 <0>         0.0804
     31 H8          0.5875   -3.1932   -0.1811 H         1 <0>         0.0645
     32 H9          0.2944   -2.4687    1.4109 H         1 <0>         0.0652
     33 H10         0.0172   -5.1479    0.8274 H         1 <0>         0.0672
     34 H11        -0.7306   -4.3210    2.2031 H         1 <0>         0.0672
     35 H12        -2.0496   -4.8197   -0.5112 H         1 <0>         0.0865
     36 H13        -3.3357   -3.8651    2.0545 H         1 <0>         0.0664
     37 H14        -5.2177   -3.3601    0.8009 H         1 <0>         0.0698
     38 H15        -4.3449   -3.3741   -0.7463 H         1 <0>         0.0716
     39 H16        -5.8258   -5.4612    0.1723 H         1 <0>         0.0777
     40 H17        -4.4422   -5.6434   -0.9339 H         1 <0>         0.0840
     41 H18        -5.7814   -6.8707    1.9349 H         1 <0>         0.1299
     42 H19        -2.2613   -7.5947    4.2180 H         1 <0>         0.0946
     43 H20        -2.0598   -8.4150    2.6600 H         1 <0>         0.1027
     44 H21        -2.3449   -5.4152    3.1692 H         1 <0>         0.0722
     45 H22        -0.9111   -6.2671    2.5559 H         1 <0>         0.0836
     46 H23        -0.8687   -7.1273    0.2120 H         1 <0>         0.0673
     47 H24        -2.2625   -8.1585    0.6150 H         1 <0>         0.0591
     48 H25        -2.3431   -7.0595   -0.7829 H         1 <0>         0.0615
     49 H26        -0.7964   -2.2082   -2.0911 H         1 <0>         0.0584
     50 H27        -1.6207   -3.6793   -1.5214 H         1 <0>         0.0698
     51 H28        -2.5437   -2.1751   -1.7532 H         1 <0>         0.0577
@<TRIPOS>BOND
     1    1    2 1
     2    1   24 1
     3    1   25 1
     4    1   26 1
     5    2    3 2
     6    2   27 1
     7    3    8 1
     8    3    4 1
     9    4    5 2
    10    4    6 1
    11    6    7 1
    12    6   28 1
    13    6   29 1
    14    7   12 1
    15    7    8 1
    16    7   30 1
    17    8    9 1
    18    8   23 1
    19    9   10 1
    20    9   31 1
    21    9   32 1
    22   10   11 1
    23   10   33 1
    24   10   34 1
    25   11   21 1
    26   11   12 1
    27   11   35 1
    28   12   13 1
    29   12   36 1
    30   13   14 1
    31   13   37 1
    32   13   38 1
    33   14   15 1
    34   14   39 1
    35   14   40 1
    36   15   21 1
    37   15   16 2
    38   16   17 1
    39   16   41 1
    40   17   18 2
    41   17   19 1
    42   19   20 1
    43   19   42 1
    44   19   43 1
    45   20   21 1
    46   20   44 1
    47   20   45 1
    48   21   22 1
    49   22   46 1
    50   22   47 1
    51   22   48 1
    52   23   49 1
    53   23   50 1
    54   23   51 1
@<TRIPOS>MOLECULE
CHEMBL372106__1
   51    54     0     0     0
SMALL
USER_CHARGES

@<TRIPOS>ATOM
      1 C1          0.2169    1.4123   -0.0222 C.3       1 <0>        -0.1353
      2 C2          0.1403   -0.0926   -0.0080 C.2       1 <0>        -0.0553
      3 C3         -1.0400   -0.6964   -0.0102 C.2       1 <0>        -0.2208
      4 C4         -2.3837   -0.0756   -0.0449 C.2       1 <0>         0.3910
      5 O1         -2.6325    1.0850   -0.2880 O.2       1 <0>        -0.4424
      6 C5         -3.4081   -1.1628    0.2984 C.3       1 <0>        -0.1676
      7 C6         -2.5172   -2.2326    0.9493 C.3       1 <0>        -0.0756
      8 C7         -1.3027   -2.1934    0.0027 C.3       1 <0>        -0.0147
      9 C8         -0.1958   -3.0514    0.5494 C.3       1 <0>        -0.1011
     10 C9         -0.7182   -4.4251    0.9955 C.3       1 <0>        -0.1132
     11 C10        -2.1581   -4.6819    0.5985 C.3       1 <0>        -0.0671
     12 C11        -3.1129   -3.6136    1.1038 C.3       1 <0>        -0.0603
     13 C12        -3.3758   -3.7906    2.6103 C.3       1 <0>        -0.1161
     14 C13        -4.0457   -5.1367    2.8711 C.3       1 <0>        -0.0974
     15 C14        -3.1167   -6.2158    2.3445 C.2       1 <0>        -0.0154
     16 C15        -2.8034   -7.2144    3.1715 C.2       1 <0>        -0.2447
     17 C16        -1.9137   -8.2897    2.7192 C.2       1 <0>         0.3878
     18 O2         -1.3106   -8.9925    3.5019 O.2       1 <0>        -0.4575
     19 C17        -1.7882   -8.4727    1.2185 C.3       1 <0>        -0.1690
     20 C18        -1.5028   -7.0941    0.6199 C.3       1 <0>        -0.1106
     21 C19        -2.6086   -6.1021    0.9452 C.3       1 <0>        -0.0277
     22 C20        -3.7795   -6.4278    0.0056 C.3       1 <0>        -0.1472
     23 C21        -1.6444   -2.5641   -1.4396 C.3       1 <0>        -0.1478
     24 H1          1.2617    1.7230   -0.0181 H         1 <0>         0.0664
     25 H2         -0.2717    1.7925   -0.9193 H         1 <0>         0.0788
     26 H3         -0.2839    1.8100    0.8605 H         1 <0>         0.0733
     27 H4          1.0469   -0.6794    0.0040 H         1 <0>         0.1258
     28 H5         -4.1320   -0.7797    1.0217 H         1 <0>         0.0927
     29 H6         -3.9121   -1.5311   -0.5863 H         1 <0>         0.1072
     30 H7         -2.2145   -1.8661    1.9523 H         1 <0>         0.0820
     31 H8          0.5846   -3.1846   -0.2125 H         1 <0>         0.0649
     32 H9          0.2717   -2.5505    1.4103 H         1 <0>         0.0640
     33 H10        -0.0685   -5.1908    0.5483 H         1 <0>         0.0697
     34 H11        -0.6218   -4.5092    2.0857 H         1 <0>         0.0614
     35 H12        -2.2065   -4.6874   -0.5023 H         1 <0>         0.0803
     36 H13        -4.0678   -3.6718    0.5700 H         1 <0>         0.0814
     37 H14        -2.4253   -3.7501    3.1426 H         1 <0>         0.0680
     38 H15        -4.0227   -2.9846    2.9557 H         1 <0>         0.0706
     39 H16        -4.1881   -5.2745    3.9444 H         1 <0>         0.0773
     40 H17        -5.0058   -5.1827    2.3650 H         1 <0>         0.0857
     41 H18        -3.2062   -7.2313    4.1734 H         1 <0>         0.1333
     42 H19        -0.9602   -9.1480    0.9984 H         1 <0>         0.0918
     43 H20        -2.7124   -8.8802    0.8157 H         1 <0>         0.0996
     44 H21        -0.5624   -6.7368    1.0371 H         1 <0>         0.0759
     45 H22        -1.4113   -7.1859   -0.4604 H         1 <0>         0.0830
     46 H23        -3.4426   -6.3670   -1.0292 H         1 <0>         0.0651
     47 H24        -4.1411   -7.4352    0.2114 H         1 <0>         0.0594
     48 H25        -4.5855   -5.7122    0.1679 H         1 <0>         0.0621
     49 H26        -0.8764   -2.1730   -2.1070 H         1 <0>         0.0594
     50 H27        -1.6904   -3.6489   -1.5348 H         1 <0>         0.0697
     51 H28        -2.6102   -2.1347   -1.7060 H         1 <0>         0.0592
@<TRIPOS>BOND
     1    1    2 1
     2    1   24 1
     3    1   25 1
     4    1   26 1
     5    2    3 2
     6    2   27 1
     7    3    8 1
     8    3    4 1
     9    4    5 2
    10    4    6 1
    11    6    7 1
    12    6   28 1
    13    6   29 1
    14    7   12 1
    15    7    8 1
    16    7   30 1
    17    8    9 1
    18    8   23 1
    19    9   10 1
    20    9   31 1
    21    9   32 1
    22   10   11 1
    23   10   33 1
    24   10   34 1
    25   11   21 1
    26   11   12 1
    27   11   35 1
    28   12   13 1
    29   12   36 1
    30   13   14 1
    31   13   37 1
    32   13   38 1
    33   14   15 1
    34   14   39 1
    35   14   40 1
    36   15   21 1
    37   15   16 2
    38   16   17 1
    39   16   41 1
    40   17   18 2
    41   17   19 1
    42   19   20 1
    43   19   42 1
    44   19   43 1
    45   20   21 1
    46   20   44 1
    47   20   45 1
    48   21   22 1
    49   22   46 1
    50   22   47 1
    51   22   48 1
    52   23   49 1
    53   23   50 1
    54   23   51 1
@<TRIPOS>MOLECULE
CHEMBL372106__2
   51    54     0     0     0
SMALL
USER_CHARGES

@<TRIPOS>ATOM
      1 C1         -0.0184    1.5028    0.0103 C.3       1 <0>        -0.1353
      2 C2          0.0021   -0.0041    0.0020 C.2       1 <0>        -0.0538
      3 C3         -1.1388   -0.6836    0.0093 C.2       1 <0>        -0.2180
      4 C4         -2.5199   -0.1457    0.0089 C.2       1 <0>         0.3903
      5 O1         -2.8402    1.0093   -0.1694 O.2       1 <0>        -0.4422
      6 C5         -3.4742   -1.3124    0.2933 C.3       1 <0>        -0.1680
      7 C6         -2.5243   -2.3354    0.9351 C.3       1 <0>        -0.0709
      8 C7         -1.3045   -2.1857    0.0028 C.3       1 <0>        -0.0199
      9 C8         -0.1627   -3.0189    0.5228 C.3       1 <0>        -0.1037
     10 C9         -0.6165   -4.4945    0.5591 C.3       1 <0>        -0.1095
     11 C10        -1.8377   -4.6587    1.4412 C.3       1 <0>        -0.0626
     12 C11        -3.0038   -3.7564    1.0611 C.3       1 <0>        -0.0571
     13 C12        -3.8521   -4.2122   -0.1039 C.3       1 <0>        -0.1112
     14 C13        -3.5464   -5.6488   -0.5226 C.3       1 <0>        -0.0919
     15 C14        -3.3960   -6.4564    0.7432 C.2       1 <0>        -0.0165
     16 C15        -4.2379   -7.4366    1.0395 C.2       1 <0>        -0.2412
     17 C16        -4.1085   -8.1868    2.2868 C.2       1 <0>         0.3883
     18 O2         -4.7945   -9.1731    2.4695 O.2       1 <0>        -0.4658
     19 C17        -3.1452   -7.7369    3.3536 C.3       1 <0>        -0.1678
     20 C18        -2.7221   -6.2886    3.1124 C.3       1 <0>        -0.1061
     21 C19        -2.2533   -6.1041    1.6647 C.3       1 <0>        -0.0278
     22 C20        -1.0905   -7.0606    1.3923 C.3       1 <0>        -0.1413
     23 C21        -1.5966   -2.5819   -1.4441 C.3       1 <0>        -0.1454
     24 H1          1.0042    1.8801    0.0026 H         1 <0>         0.0662
     25 H2         -0.5455    1.8639   -0.8728 H         1 <0>         0.0785
     26 H3         -0.5286    1.8543    0.9071 H         1 <0>         0.0739
     27 H4          0.9446   -0.5313   -0.0098 H         1 <0>         0.1258
     28 H5         -4.2388   -1.0046    1.0120 H         1 <0>         0.0916
     29 H6         -3.9331   -1.6828   -0.6132 H         1 <0>         0.1085
     30 H7         -2.2550   -1.9574    1.9495 H         1 <0>         0.0792
     31 H8          0.7033   -2.9234   -0.1351 H         1 <0>         0.0677
     32 H9          0.1090   -2.6987    1.5302 H         1 <0>         0.0661
     33 H10        -0.8092   -4.8581   -0.4417 H         1 <0>         0.0704
     34 H11         0.2321   -5.0505    0.9801 H         1 <0>         0.0667
     35 H12        -1.5142   -4.3007    2.4448 H         1 <0>         0.0653
     36 H13        -3.6914   -3.7735    1.9523 H         1 <0>         0.0639
     37 H14        -4.9073   -4.1991    0.2278 H         1 <0>         0.0583
     38 H15        -3.7949   -3.5573   -0.9550 H         1 <0>         0.0786
     39 H16        -4.3734   -6.0390   -1.1114 H         1 <0>         0.0777
     40 H17        -2.6263   -5.6786   -1.0971 H         1 <0>         0.0852
     41 H18        -5.0318   -7.6848    0.3503 H         1 <0>         0.1309
     42 H19        -3.6456   -7.8024    4.3286 H         1 <0>         0.0956
     43 H20        -2.2782   -8.3941    3.3761 H         1 <0>         0.1037
     44 H21        -3.5677   -5.6243    3.3009 H         1 <0>         0.0713
     45 H22        -1.9064   -6.0277    3.7892 H         1 <0>         0.0796
     46 H23        -0.2639   -6.8280    2.0636 H         1 <0>         0.0668
     47 H24        -1.4172   -8.0868    1.5602 H         1 <0>         0.0585
     48 H25        -0.7621   -6.9483    0.3591 H         1 <0>         0.0645
     49 H26        -0.7530   -2.3016   -2.0750 H         1 <0>         0.0585
     50 H27        -1.7511   -3.6593   -1.5018 H         1 <0>         0.0693
     51 H28        -2.4940   -2.0672   -1.7877 H         1 <0>         0.0549
@<TRIPOS>BOND
     1    1    2 1
     2    1   24 1
     3    1   25 1
     4    1   26 1
     5    2    3 2
     6    2   27 1
     7    3    8 1
     8    3    4 1
     9    4    5 2
    10    4    6 1
    11    6    7 1
    12    6   28 1
    13    6   29 1
    14    7   12 1
    15    7    8 1
    16    7   30 1
    17    8    9 1
    18    8   23 1
    19    9   10 1
    20    9   31 1
    21    9   32 1
    22   10   11 1
    23   10   33 1
    24   10   34 1
    25   11   21 1
    26   11   12 1
    27   11   35 1
    28   12   13 1
    29   12   36 1
    30   13   14 1
    31   13   37 1
    32   13   38 1
    33   14   15 1
    34   14   39 1
    35   14   40 1
    36   15   21 1
    37   15   16 2
    38   16   17 1
    39   16   41 1
    40   17   18 2
    41   17   19 1
    42   19   20 1
    43   19   42 1
    44   19   43 1
    45   20   21 1
    46   20   44 1
    47   20   45 1
    48   21   22 1
    49   22   46 1
    50   22   47 1
    51   22   48 1
    52   23   49 1
    53   23   50 1
    54   23   51 1
@<TRIPOS>MOLECULE
CHEMBL372106__3
   51    54     0     0     0
SMALL
USER_CHARGES

@<TRIPOS>ATOM
      1 C1         -0.6764    1.6694    0.0106 C.3       1 <0>        -0.1349
      2 C2         -0.3961    0.1892   -0.0298 C.2       1 <0>        -0.0497
      3 C3         -1.4046   -0.6828    0.0307 C.2       1 <0>        -0.2145
      4 C4         -2.8461   -0.3637    0.1321 C.2       1 <0>         0.3900
      5 O1         -3.3367    0.7459    0.1179 O.2       1 <0>        -0.4439
      6 C5         -3.6059   -1.6850    0.2576 C.3       1 <0>        -0.1661
      7 C6         -2.5405   -2.6295    0.8278 C.3       1 <0>        -0.0773
      8 C7         -1.3003   -2.1771    0.0028 C.3       1 <0>        -0.0261
      9 C8         -0.0824   -2.8057    0.6477 C.3       1 <0>        -0.1010
     10 C9         -0.2142   -4.3273    0.4723 C.3       1 <0>        -0.1230
     11 C10        -1.5125   -4.8567    1.0737 C.3       1 <0>        -0.0677
     12 C11        -2.7418   -4.1068    0.5438 C.3       1 <0>        -0.0777
     13 C12        -3.9922   -4.6072    1.2730 C.3       1 <0>        -0.1144
     14 C13        -4.2212   -6.0797    0.9256 C.3       1 <0>        -0.0974
     15 C14        -2.9640   -6.8624    1.2580 C.2       1 <0>        -0.0196
     16 C15        -3.1010   -7.9844    1.9644 C.2       1 <0>        -0.2414
     17 C16        -1.9215   -8.7890    2.3007 C.2       1 <0>         0.3877
     18 O2         -1.9261   -9.5733    3.2264 O.2       1 <0>        -0.4573
     19 C17        -0.6960   -8.5883    1.4306 C.3       1 <0>        -0.1682
     20 C18        -0.4440   -7.0841    1.3366 C.3       1 <0>        -0.1057
     21 C19        -1.6440   -6.3501    0.7505 C.3       1 <0>        -0.0269
     22 C20        -1.6100   -6.5078   -0.7710 C.3       1 <0>        -0.1496
     23 C21        -1.4271   -2.6755   -1.4382 C.3       1 <0>        -0.1487
     24 H1          0.2631    2.2189   -0.0494 H         1 <0>         0.0660
     25 H2         -1.3112    1.9421   -0.8324 H         1 <0>         0.0781
     26 H3         -1.1837    1.9178    0.9428 H         1 <0>         0.0765
     27 H4          0.6209   -0.1658   -0.1077 H         1 <0>         0.1253
     28 H5         -4.4439   -1.5855    0.9475 H         1 <0>         0.0927
     29 H6         -3.9461   -2.0299   -0.7188 H         1 <0>         0.1056
     30 H7         -2.4001   -2.4567    1.8948 H         1 <0>         0.0859
     31 H8          0.8233   -2.4518    0.1552 H         1 <0>         0.0670
     32 H9         -0.0522   -2.5550    1.7081 H         1 <0>         0.0671
     33 H10        -0.1924   -4.5654   -0.5911 H         1 <0>         0.0765
     34 H11         0.6287   -4.8155    0.9615 H         1 <0>         0.0676
     35 H12        -1.4786   -4.7306    2.1558 H         1 <0>         0.0719
     36 H13        -2.8329   -4.2715   -0.5298 H         1 <0>         0.0905
     37 H14        -3.8520   -4.5044    2.3491 H         1 <0>         0.0674
     38 H15        -4.8558   -4.0206    0.9597 H         1 <0>         0.0730
     39 H16        -5.0572   -6.4667    1.5083 H         1 <0>         0.0779
     40 H17        -4.4399   -6.1743   -0.1380 H         1 <0>         0.0846
     41 H18        -4.0809   -8.3011    2.2897 H         1 <0>         0.1338
     42 H19         0.1646   -9.0806    1.8835 H         1 <0>         0.0923
     43 H20        -0.8767   -8.9966    0.4362 H         1 <0>         0.0999
     44 H21        -0.2269   -6.6971    2.3322 H         1 <0>         0.0701
     45 H22         0.4175   -6.9075    0.6925 H         1 <0>         0.0827
     46 H23        -0.6664   -6.1206   -1.1554 H         1 <0>         0.0704
     47 H24        -1.7020   -7.5628   -1.0291 H         1 <0>         0.0592
     48 H25        -2.4374   -5.9523   -1.2124 H         1 <0>         0.0642
     49 H26        -0.5735   -2.3271   -2.0196 H         1 <0>         0.0577
     50 H27        -1.4510   -3.7652   -1.4450 H         1 <0>         0.0747
     51 H28        -2.3473   -2.2892   -1.8766 H         1 <0>         0.0551
@<TRIPOS>BOND
     1    1    2 1
     2    1   24 1
     3    1   25 1
     4    1   26 1
     5    2    3 2
     6    2   27 1
     7    3    8 1
     8    3    4 1
     9    4    5 2
    10    4    6 1
    11    6    7 1
    12    6   28 1
    13    6   29 1
    14    7   12 1
    15    7    8 1
    16    7   30 1
    17    8    9 1
    18    8   23 1
    19    9   10 1
    20    9   31 1
    21    9   32 1
    22   10   11 1
    23   10   33 1
    24   10   34 1
    25   11   21 1
    26   11   12 1
    27   11   35 1
    28   12   13 1
    29   12   36 1
    30   13   14 1
    31   13   37 1
    32   13   38 1
    33   14   15 1
    34   14   39 1
    35   14   40 1
    36   15   21 1
    37   15   16 2
    38   16   17 1
    39   16   41 1
    40   17   18 2
    41   17   19 1
    42   19   20 1
    43   19   42 1
    44   19   43 1
    45   20   21 1
    46   20   44 1
    47   20   45 1
    48   21   22 1
    49   22   46 1
    50   22   47 1
    51   22   48 1
    52   23   49 1
    53   23   50 1
    54   23   51 1
@<TRIPOS>MOLECULE
CHEMBL372106__4
   51    54     0     0     0
SMALL
USER_CHARGES

@<TRIPOS>ATOM
      1 C1         -0.0184    1.5028    0.0103 C.3       1 <0>        -0.1342
      2 C2          0.0021   -0.0041    0.0020 C.2       1 <0>        -0.0520
      3 C3         -1.1445   -0.6870    0.0093 C.2       1 <0>        -0.2124
      4 C4         -2.5018   -0.1171    0.0189 C.2       1 <0>         0.3898
      5 O1         -2.7818    1.0634    0.0150 O.2       1 <0>        -0.4451
      6 C5         -3.4900   -1.2722    0.0336 C.3       1 <0>        -0.1798
      7 C6         -2.6678   -2.4481    0.6452 C.3       1 <0>        -0.0666
      8 C7         -1.2935   -2.1887    0.0027 C.3       1 <0>        -0.0163
      9 C8         -0.1694   -2.8980    0.7224 C.3       1 <0>        -0.1057
     10 C9         -0.1688   -2.5300    2.2034 C.3       1 <0>        -0.1216
     11 C10        -1.5031   -2.9645    2.8285 C.3       1 <0>        -0.0614
     12 C11        -2.6536   -2.2162    2.1614 C.3       1 <0>        -0.0735
     13 C12        -4.0210   -2.6345    2.6958 C.3       1 <0>        -0.1125
     14 C13        -3.9831   -3.0306    4.1641 C.3       1 <0>        -0.0947
     15 C14        -2.8314   -2.3309    4.8416 C.2       1 <0>        -0.0166
     16 C15        -3.0454   -1.5044    5.8601 C.2       1 <0>        -0.2412
     17 C16        -1.9363   -0.8122    6.5137 C.2       1 <0>         0.3871
     18 O2         -2.1495   -0.0795    7.4569 O.2       1 <0>        -0.4643
     19 C17        -0.5266   -1.0089    6.0146 C.3       1 <0>        -0.1708
     20 C18        -0.5719   -1.3569    4.5228 C.3       1 <0>        -0.1085
     21 C19        -1.4298   -2.6205    4.3219 C.3       1 <0>        -0.0339
     22 C20        -0.8186   -3.7964    5.0866 C.3       1 <0>        -0.1395
     23 C21        -1.3187   -2.6785   -1.4466 C.3       1 <0>        -0.1426
     24 H1          1.0042    1.8801    0.0026 H         1 <0>         0.0656
     25 H2         -0.5455    1.8639   -0.8728 H         1 <0>         0.0772
     26 H3         -0.5286    1.8543    0.9071 H         1 <0>         0.0768
     27 H4          0.9446   -0.5313   -0.0098 H         1 <0>         0.1255
     28 H5         -4.3477   -1.0354    0.6633 H         1 <0>         0.0944
     29 H6         -3.8117   -1.5149   -0.9792 H         1 <0>         0.1038
     30 H7         -3.0770   -3.4237    0.3830 H         1 <0>         0.0986
     31 H8         -0.2982   -3.9754    0.6187 H         1 <0>         0.0700
     32 H9          0.7828   -2.6075    0.2784 H         1 <0>         0.0652
     33 H10         0.6527   -3.0410    2.7056 H         1 <0>         0.0689
     34 H11        -0.0495   -1.4520    2.3111 H         1 <0>         0.0721
     35 H12        -1.6311   -4.0401    2.7068 H         1 <0>         0.0818
     36 H13        -2.5336   -1.1485    2.3448 H         1 <0>         0.0680
     37 H14        -4.7156   -1.8034    2.5735 H         1 <0>         0.0657
     38 H15        -4.3827   -3.4811    2.1123 H         1 <0>         0.0713
     39 H16        -4.9179   -2.7399    4.6435 H         1 <0>         0.0766
     40 H17        -3.8522   -4.1096    4.2464 H         1 <0>         0.0843
     41 H18        -4.0541   -1.3414    6.2099 H         1 <0>         0.1305
     42 H19         0.0429   -0.0907    6.1581 H         1 <0>         0.0949
     43 H20        -0.0547   -1.8228    6.5651 H         1 <0>         0.1034
     44 H21        -0.9993   -0.5229    3.9662 H         1 <0>         0.0712
     45 H22         0.4375   -1.5583    4.1641 H         1 <0>         0.0846
     46 H23         0.1849   -3.9929    4.7092 H         1 <0>         0.0675
     47 H24        -0.7665   -3.5521    6.1476 H         1 <0>         0.0597
     48 H25        -1.4389   -4.6818    4.9477 H         1 <0>         0.0620
     49 H26        -0.3780   -2.4213   -1.9334 H         1 <0>         0.0584
     50 H27        -1.4521   -3.7602   -1.4623 H         1 <0>         0.0624
     51 H28        -2.1440   -2.2029   -1.9766 H         1 <0>         0.0559
@<TRIPOS>BOND
     1    1    2 1
     2    1   24 1
     3    1   25 1
     4    1   26 1
     5    2    3 2
     6    2   27 1
     7    3    8 1
     8    3    4 1
     9    4    5 2
    10    4    6 1
    11    6    7 1
    12    6   28 1
    13    6   29 1
    14    7   12 1
    15    7    8 1
    16    7   30 1
    17    8    9 1
    18    8   23 1
    19    9   10 1
    20    9   31 1
    21    9   32 1
    22   10   11 1
    23   10   33 1
    24   10   34 1
    25   11   21 1
    26   11   12 1
    27   11   35 1
    28   12   13 1
    29   12   36 1
    30   13   14 1
    31   13   37 1
    32   13   38 1
    33   14   15 1
    34   14   39 1
    35   14   40 1
    36   15   21 1
    37   15   16 2
    38   16   17 1
    39   16   41 1
    40   17   18 2
    41   17   19 1
    42   19   20 1
    43   19   42 1
    44   19   43 1
    45   20   21 1
    46   20   44 1
    47   20   45 1
    48   21   22 1
    49   22   46 1
    50   22   47 1
    51   22   48 1
    52   23   49 1
    53   23   50 1
    54   23   51 1
@<TRIPOS>MOLECULE
CHEMBL372106__5
   51    54     0     0     0
SMALL
USER_CHARGES

@<TRIPOS>ATOM
      1 C1         -0.0184    1.5028    0.0103 C.3       1 <0>        -0.1325
      2 C2          0.0021   -0.0041    0.0020 C.2       1 <0>        -0.0641
      3 C3         -1.1445   -0.6870    0.0093 C.2       1 <0>        -0.2070
      4 C4         -2.5010   -0.1162    0.0189 C.2       1 <0>         0.4019
      5 O1         -2.7797    1.0647    0.0160 O.2       1 <0>        -0.4532
      6 C5         -3.4906   -1.2698    0.0320 C.3       1 <0>        -0.1800
      7 C6         -2.6720   -2.4474    0.6426 C.3       1 <0>        -0.0679
      8 C7         -1.2923   -2.1888    0.0026 C.3       1 <0>        -0.0170
      9 C8         -0.1615   -2.8964    0.7106 C.3       1 <0>        -0.1036
     10 C9         -0.1660   -2.5985    2.2103 C.3       1 <0>        -0.1261
     11 C10        -1.5123   -3.0530    2.7842 C.3       1 <0>        -0.0641
     12 C11        -2.6230   -2.2023    2.1540 C.3       1 <0>        -0.0777
     13 C12        -2.3478   -0.7180    2.4123 C.3       1 <0>        -0.1468
     14 C13        -2.4320   -0.4470    3.9163 C.3       1 <0>        -0.0939
     15 C14        -1.4778   -1.3820    4.6367 C.2       1 <0>        -0.0150
     16 C15        -0.6501   -0.8515    5.5363 C.2       1 <0>        -0.2458
     17 C16         0.2830   -1.7111    6.2726 C.2       1 <0>         0.3888
     18 O2          1.2828   -1.2665    6.7969 O.2       1 <0>        -0.4580
     19 C17        -0.0679   -3.1844    6.3443 C.3       1 <0>        -0.1662
     20 C18        -0.3876   -3.6478    4.9238 C.3       1 <0>        -0.1113
     21 C19        -1.5104   -2.8625    4.3038 C.3       1 <0>        -0.0264
     22 C20        -2.8201   -3.4326    4.8520 C.3       1 <0>        -0.1474
     23 C21        -1.3254   -2.6700   -1.4494 C.3       1 <0>        -0.1433
     24 H1          1.0042    1.8801    0.0026 H         1 <0>         0.0650
     25 H2         -0.5455    1.8639   -0.8728 H         1 <0>         0.0772
     26 H3         -0.5286    1.8543    0.9071 H         1 <0>         0.0762
     27 H4          0.9446   -0.5313   -0.0098 H         1 <0>         0.1247
     28 H5         -4.3484   -1.0321    0.6612 H         1 <0>         0.0946
     29 H6         -3.8120   -1.5109   -0.9813 H         1 <0>         0.1024
     30 H7         -3.0848   -3.4246    0.3919 H         1 <0>         0.1011
     31 H8         -0.2643   -3.9711    0.5606 H         1 <0>         0.0700
     32 H9          0.7866   -2.5676    0.2850 H         1 <0>         0.0647
     33 H10         0.6436   -3.1432    2.6959 H         1 <0>         0.0703
     34 H11        -0.0394   -1.5282    2.3730 H         1 <0>         0.0706
     35 H12        -1.6719   -4.1054    2.5492 H         1 <0>         0.0840
     36 H13        -3.5830   -2.4702    2.5954 H         1 <0>         0.0815
     37 H14        -1.3511   -0.4640    2.0515 H         1 <0>         0.0897
     38 H15        -3.0902   -0.1136    1.8910 H         1 <0>         0.0784
     39 H16        -2.1516    0.5870    4.1173 H         1 <0>         0.0767
     40 H17        -3.4498   -0.6255    4.2631 H         1 <0>         0.0839
     41 H18        -0.6660    0.2121    5.7231 H         1 <0>         0.1326
     42 H19         0.7785   -3.7482    6.7364 H         1 <0>         0.0927
     43 H20        -0.9380   -3.3271    6.9852 H         1 <0>         0.0993
     44 H21         0.5023   -3.5353    4.3045 H         1 <0>         0.0750
     45 H22        -0.6709   -4.7001    4.9486 H         1 <0>         0.0820
     46 H23        -2.8866   -4.4922    4.6051 H         1 <0>         0.0653
     47 H24        -2.8449   -3.3096    5.9347 H         1 <0>         0.0589
     48 H25        -3.6618   -2.9023    4.4067 H         1 <0>         0.0625
     49 H26        -0.3877   -2.4090   -1.9400 H         1 <0>         0.0582
     50 H27        -1.4579   -3.7517   -1.4707 H         1 <0>         0.0625
     51 H28        -2.1541   -2.1920   -1.9717 H         1 <0>         0.0566
@<TRIPOS>BOND
     1    1    2 1
     2    1   24 1
     3    1   25 1
     4    1   26 1
     5    2    3 2
     6    2   27 1
     7    3    8 1
     8    3    4 1
     9    4    5 2
    10    4    6 1
    11    6    7 1
    12    6   28 1
    13    6   29 1
    14    7   12 1
    15    7    8 1
    16    7   30 1
    17    8    9 1
    18    8   23 1
    19    9   10 1
    20    9   31 1
    21    9   32 1
    22   10   11 1
    23   10   33 1
    24   10   34 1
    25   11   21 1
    26   11   12 1
    27   11   35 1
    28   12   13 1
    29   12   36 1
    30   13   14 1
    31   13   37 1
    32   13   38 1
    33   14   15 1
    34   14   39 1
    35   14   40 1
    36   15   21 1
    37   15   16 2
    38   16   17 1
    39   16   41 1
    40   17   18 2
    41   17   19 1
    42   19   20 1
    43   19   42 1
    44   19   43 1
    45   20   21 1
    46   20   44 1
    47   20   45 1
    48   21   22 1
    49   22   46 1
    50   22   47 1
    51   22   48 1
    52   23   49 1
    53   23   50 1
    54   23   51 1
@<TRIPOS>MOLECULE
CHEMBL372106__6
   51    54     0     0     0
SMALL
USER_CHARGES

@<TRIPOS>ATOM
      1 C1         -0.0184    1.5028    0.0103 C.3       1 <0>        -0.1334
      2 C2          0.0021   -0.0041    0.0020 C.2       1 <0>        -0.0532
      3 C3         -1.1438   -0.6866    0.0093 C.2       1 <0>        -0.2116
      4 C4         -2.4985   -0.1058    0.0097 C.2       1 <0>         0.3898
      5 O1         -2.7666    1.0740   -0.0830 O.2       1 <0>        -0.4460
      6 C5         -3.4986   -1.2413    0.1522 C.3       1 <0>        -0.1814
      7 C6         -2.6568   -2.4157    0.7323 C.3       1 <0>        -0.0653
      8 C7         -1.3162   -2.1830    0.0029 C.3       1 <0>        -0.0122
      9 C8         -0.1714   -2.9555    0.5987 C.3       1 <0>        -0.1051
     10 C9         -0.0625   -2.8475    2.1096 C.3       1 <0>        -0.1074
     11 C10        -1.3887   -3.0190    2.8371 C.3       1 <0>        -0.0596
     12 C11        -2.4715   -2.1559    2.2234 C.3       1 <0>        -0.0705
     13 C12        -3.7934   -2.2865    2.9739 C.3       1 <0>        -0.1154
     14 C13        -4.2469   -3.7473    2.9820 C.3       1 <0>        -0.0971
     15 C14        -3.1533   -4.5735    3.6341 C.2       1 <0>        -0.0168
     16 C15        -3.4889   -5.3463    4.6637 C.2       1 <0>        -0.2430
     17 C16        -2.4830   -6.1703    5.3402 C.2       1 <0>         0.3877
     18 O2         -2.6806   -6.6362    6.4445 O.2       1 <0>        -0.4593
     19 C17        -1.1859   -6.4157    4.5966 C.3       1 <0>        -0.1673
     20 C18        -0.7197   -5.0845    4.0164 C.3       1 <0>        -0.1081
     21 C19        -1.7597   -4.4722    3.0800 C.3       1 <0>        -0.0173
     22 C20        -1.7316   -5.2869    1.7891 C.3       1 <0>        -0.1500
     23 C21        -1.4856   -2.6373   -1.4544 C.3       1 <0>        -0.1461
     24 H1          1.0042    1.8801    0.0026 H         1 <0>         0.0652
     25 H2         -0.5455    1.8639   -0.8728 H         1 <0>         0.0786
     26 H3         -0.5286    1.8543    0.9071 H         1 <0>         0.0756
     27 H4          0.9446   -0.5313   -0.0098 H         1 <0>         0.1248
     28 H5         -4.2950   -0.9572    0.8429 H         1 <0>         0.0964
     29 H6         -3.9278   -1.5050   -0.8137 H         1 <0>         0.1043
     30 H7         -3.0932   -3.3869    0.5114 H         1 <0>         0.1022
     31 H8         -0.2128   -3.9927    0.2775 H         1 <0>         0.0754
     32 H9          0.7650   -2.5559    0.1664 H         1 <0>         0.0567
     33 H10         0.6537   -3.5977    2.4733 H         1 <0>         0.0684
     34 H11         0.3597   -1.8633    2.3674 H         1 <0>         0.0608
     35 H12        -1.2173   -2.5841    3.8634 H         1 <0>         0.0609
     36 H13        -2.1467   -1.1000    2.3300 H         1 <0>         0.0684
     37 H14        -3.6599   -1.9473    4.0057 H         1 <0>         0.0668
     38 H15        -4.5577   -1.6703    2.5011 H         1 <0>         0.0745
     39 H16        -5.1673   -3.8401    3.5597 H         1 <0>         0.0767
     40 H17        -4.4188   -4.0893    1.9642 H         1 <0>         0.0862
     41 H18        -4.5155   -5.3685    5.0050 H         1 <0>         0.1325
     42 H19        -0.4329   -6.7969    5.2919 H         1 <0>         0.0918
     43 H20        -1.3419   -7.1460    3.8040 H         1 <0>         0.1016
     44 H21        -0.5316   -4.3846    4.8296 H         1 <0>         0.0680
     45 H22         0.2016   -5.2409    3.4570 H         1 <0>         0.0826
     46 H23        -0.7293   -5.2561    1.3618 H         1 <0>         0.0707
     47 H24        -2.0026   -6.3202    2.0056 H         1 <0>         0.0574
     48 H25        -2.4427   -4.8660    1.0782 H         1 <0>         0.0654
     49 H26        -0.5902   -2.3817   -2.0211 H         1 <0>         0.0577
     50 H27        -1.6381   -3.7162   -1.4832 H         1 <0>         0.0626
     51 H28        -2.3486   -2.1365   -1.8931 H         1 <0>         0.0567
@<TRIPOS>BOND
     1    1    2 1
     2    1   24 1
     3    1   25 1
     4    1   26 1
     5    2    3 2
     6    2   27 1
     7    3    8 1
     8    3    4 1
     9    4    5 2
    10    4    6 1
    11    6    7 1
    12    6   28 1
    13    6   29 1
    14    7   12 1
    15    7    8 1
    16    7   30 1
    17    8    9 1
    18    8   23 1
    19    9   10 1
    20    9   31 1
    21    9   32 1
    22   10   11 1
    23   10   33 1
    24   10   34 1
    25   11   21 1
    26   11   12 1
    27   11   35 1
    28   12   13 1
    29   12   36 1
    30   13   14 1
    31   13   37 1
    32   13   38 1
    33   14   15 1
    34   14   39 1
    35   14   40 1
    36   15   21 1
    37   15   16 2
    38   16   17 1
    39   16   41 1
    40   17   18 2
    41   17   19 1
    42   19   20 1
    43   19   42 1
    44   19   43 1
    45   20   21 1
    46   20   44 1
    47   20   45 1
    48   21   22 1
    49   22   46 1
    50   22   47 1
    51   22   48 1
    52   23   49 1
    53   23   50 1
    54   23   51 1
@<TRIPOS>MOLECULE
CHEMBL372106__7
   51    54     0     0     0
SMALL
USER_CHARGES

@<TRIPOS>ATOM
      1 C1         -0.0184    1.5028    0.0103 C.3       1 <0>        -0.1347
      2 C2          0.0021   -0.0041    0.0020 C.2       1 <0>        -0.0492
      3 C3         -1.1445   -0.6870    0.0093 C.2       1 <0>        -0.2259
      4 C4         -2.4970   -0.1126    0.0189 C.2       1 <0>         0.3887
      5 O1         -2.7707    1.0690    0.0520 O.2       1 <0>        -0.4456
      6 C5         -3.4938   -1.2622   -0.0195 C.3       1 <0>        -0.1707
      7 C6         -2.6735   -2.4152   -0.6294 C.3       1 <0>        -0.0665
      8 C7         -1.2892   -2.2092    0.0025 C.3       1 <0>        -0.0126
      9 C8         -1.2966   -2.6481    1.4691 C.3       1 <0>        -0.1051
     10 C9         -1.8073   -4.0793    1.6004 C.3       1 <0>        -0.1202
     11 C10        -3.2599   -4.1302    1.1108 C.3       1 <0>        -0.0678
     12 C11        -3.2835   -3.7693   -0.3631 C.3       1 <0>        -0.0716
     13 C12        -4.7273   -3.7977   -0.8761 C.3       1 <0>        -0.1158
     14 C13        -5.2698   -5.2248   -0.7789 C.3       1 <0>        -0.0974
     15 C14        -5.1232   -5.7034    0.6540 C.2       1 <0>        -0.0193
     16 C15        -6.1889   -6.2494    1.2386 C.2       1 <0>        -0.2408
     17 C16        -6.0968   -6.7421    2.6173 C.2       1 <0>         0.3876
     18 O2         -7.0816   -6.8871    3.3109 O.2       1 <0>        -0.4573
     19 C17        -4.7059   -7.0609    3.1293 C.3       1 <0>        -0.1682
     20 C18        -3.8157   -5.8597    2.8147 C.3       1 <0>        -0.1052
     21 C19        -3.7916   -5.5549    1.3130 C.3       1 <0>        -0.0283
     22 C20        -2.8115   -6.5232    0.6477 C.3       1 <0>        -0.1481
     23 C21        -0.1823   -2.8909   -0.8042 C.3       1 <0>        -0.1352
     24 H1          1.0042    1.8801    0.0026 H         1 <0>         0.0657
     25 H2         -0.5455    1.8639   -0.8728 H         1 <0>         0.0773
     26 H3         -0.5286    1.8543    0.9071 H         1 <0>         0.0778
     27 H4          0.9446   -0.5313   -0.0098 H         1 <0>         0.1255
     28 H5         -3.8270   -1.5167    0.9866 H         1 <0>         0.1046
     29 H6         -4.3429   -1.0146   -0.6565 H         1 <0>         0.0940
     30 H7         -2.5877   -2.2644   -1.7055 H         1 <0>         0.0793
     31 H8         -0.2832   -2.5906    1.8663 H         1 <0>         0.0659
     32 H9         -1.9437   -1.9822    2.0400 H         1 <0>         0.0625
     33 H10        -1.1932   -4.7438    0.9926 H         1 <0>         0.0747
     34 H11        -1.7623   -4.3892    2.6444 H         1 <0>         0.0697
     35 H12        -3.8653   -3.4275    1.6833 H         1 <0>         0.0766
     36 H13        -2.7173   -4.5223   -0.9114 H         1 <0>         0.0804
     37 H14        -5.3421   -3.1326   -0.2697 H         1 <0>         0.0684
     38 H15        -4.7509   -3.4694   -1.9152 H         1 <0>         0.0719
     39 H16        -6.3222   -5.2362   -1.0625 H         1 <0>         0.0781
     40 H17        -4.7027   -5.8777   -1.4425 H         1 <0>         0.0846
     41 H18        -7.1203   -6.3289    0.6977 H         1 <0>         0.1339
     42 H19        -4.7367   -7.2271    4.2061 H         1 <0>         0.0923
     43 H20        -4.3210   -7.9487    2.6275 H         1 <0>         0.0999
     44 H21        -4.1892   -4.9895    3.3545 H         1 <0>         0.0693
     45 H22        -2.7999   -6.0734    3.1472 H         1 <0>         0.0831
     46 H23        -1.8289   -6.4190    1.1079 H         1 <0>         0.0707
     47 H24        -3.1667   -7.5456    0.7770 H         1 <0>         0.0579
     48 H25        -2.7406   -6.2950   -0.4158 H         1 <0>         0.0637
     49 H26         0.7854   -2.6658   -0.3558 H         1 <0>         0.0585
     50 H27        -0.3421   -3.9691   -0.8014 H         1 <0>         0.0637
     51 H28        -0.2015   -2.5234   -1.8303 H         1 <0>         0.0591
@<TRIPOS>BOND
     1    1    2 1
     2    1   24 1
     3    1   25 1
     4    1   26 1
     5    2    3 2
     6    2   27 1
     7    3    8 1
     8    3    4 1
     9    4    5 2
    10    4    6 1
    11    6    7 1
    12    6   28 1
    13    6   29 1
    14    7   12 1
    15    7    8 1
    16    7   30 1
    17    8    9 1
    18    8   23 1
    19    9   10 1
    20    9   31 1
    21    9   32 1
    22   10   11 1
    23   10   33 1
    24   10   34 1
    25   11   21 1
    26   11   12 1
    27   11   35 1
    28   12   13 1
    29   12   36 1
    30   13   14 1
    31   13   37 1
    32   13   38 1
    33   14   15 1
    34   14   39 1
    35   14   40 1
    36   15   21 1
    37   15   16 2
    38   16   17 1
    39   16   41 1
    40   17   18 2
    41   17   19 1
    42   19   20 1
    43   19   42 1
    44   19   43 1
    45   20   21 1
    46   20   44 1
    47   20   45 1
    48   21   22 1
    49   22   46 1
    50   22   47 1
    51   22   48 1
    52   23   49 1
    53   23   50 1
    54   23   51 1
@<TRIPOS>MOLECULE
CHEMBL1201025
   67    71     0     0     0
SMALL
USER_CHARGES

@<TRIPOS>ATOM
      1 C1         -0.0179    1.4678    0.0101 C.3       1 <0>        -0.0460
      2 C2          0.0021   -0.0041    0.0020 C.1       1 <0>        -0.1645
      3 C3          0.0180   -1.1779   -0.0044 C.1       1 <0>        -0.2058
      4 C4          0.0380   -2.6498   -0.0125 C.3       1 <0>         0.2516
      5 C5          0.6396   -3.1768   -1.3393 C.3       1 <0>        -0.1450
      6 C6         -0.5590   -3.0894   -2.3171 C.3       1 <0>        -0.1210
      7 C7         -1.7741   -3.4993   -1.4567 C.3       1 <0>        -0.0716
      8 H1         -2.6429   -2.9047   -1.7391 H         1 <0>         0.0807
      9 C8         -1.3998   -3.2097   -0.0018 C.3       1 <0>        -0.0343
     10 C9         -1.4522   -4.4637    0.8608 C.3       1 <0>        -0.0830
     11 C10        -2.8466   -5.0951    0.7690 C.3       1 <0>        -0.0112
     12 H2         -3.6006   -4.3799    1.0978 H         1 <0>         0.0922
     13 C11        -3.0784   -5.4587   -0.6870 C.2       1 <0>        -0.0537
     14 C12        -4.1490   -6.1720   -1.0075 C.2       1 <0>        -0.1205
     15 C13        -5.1490   -6.6034    0.0398 C.3       1 <0>        -0.0745
     16 C14        -6.5604   -6.3940   -0.5178 C.3       1 <0>        -0.1668
     17 C15        -6.6760   -7.0219   -1.8803 C.2       1 <0>         0.3878
     18 O1         -7.7236   -7.5417   -2.2085 O.2       1 <0>        -0.4740
     19 C16        -5.5968   -7.0191   -2.7816 C.2       1 <0>        -0.2510
     20 C17        -4.3804   -6.5832   -2.3941 C.2       1 <0>         0.0271
     21 C18        -3.2130   -6.5103   -3.3470 C.3       1 <0>        -0.0951
     22 C19        -2.5110   -5.1713   -3.1321 C.3       1 <0>        -0.1131
     23 C20        -2.0656   -4.9842   -1.6891 C.3       1 <0>        -0.0432
     24 H3         -1.1429   -5.5470   -1.5469 H         1 <0>         0.0876
     25 C21        -2.9067   -6.3339    1.6251 C.ar      1 <0>        -0.1268
     26 C22        -2.0468   -7.3877    1.3750 C.ar      1 <0>        -0.0561
     27 C23        -2.0992   -8.5243    2.1576 C.ar      1 <0>        -0.1956
     28 C24        -3.0169   -8.6084    3.1970 C.ar      1 <0>         0.2144
     29 C25        -3.8792   -7.5480    3.4455 C.ar      1 <0>        -0.1953
     30 C26        -3.8177   -6.4120    2.6626 C.ar      1 <0>        -0.0667
     31 N1         -3.0729   -9.7567    3.9901 N.pl3     1 <0>        -0.6390
     32 C27        -2.1631  -10.8743    3.7263 C.3       1 <0>         0.0927
     33 C28        -4.0414   -9.8436    5.0859 C.3       1 <0>         0.0925
     34 C29        -2.3544   -2.1624    0.5753 C.3       1 <0>        -0.1433
     35 O2          0.7761   -3.1451    1.1063 O.3       1 <0>        -0.5393
     36 H4          1.0047    1.8451    0.0024 H         1 <0>         0.0814
     37 H5         -0.5451    1.8289   -0.8729 H         1 <0>         0.0822
     38 H6         -0.5281    1.8193    0.9069 H         1 <0>         0.0819
     39 H7          1.4576   -2.5384   -1.6730 H         1 <0>         0.0717
     40 H8          0.9737   -4.2085   -1.2290 H         1 <0>         0.0859
     41 H9         -0.6781   -2.0705   -2.6855 H         1 <0>         0.0697
     42 H10        -0.4267   -3.7838   -3.1468 H         1 <0>         0.0780
     43 H11        -0.7069   -5.1772    0.5092 H         1 <0>         0.0706
     44 H12        -1.2407   -4.2002    1.8971 H         1 <0>         0.0771
     45 H13        -5.0010   -7.6574    0.2749 H         1 <0>         0.0778
     46 H14        -5.0183   -6.0030    0.9400 H         1 <0>         0.0949
     47 H15        -7.2862   -6.8521    0.1541 H         1 <0>         0.0922
     48 H16        -6.7644   -5.3259   -0.5935 H         1 <0>         0.0970
     49 H17        -5.7430   -7.3690   -3.7929 H         1 <0>         0.1329
     50 H18        -2.5199   -7.3265   -3.1435 H         1 <0>         0.0883
     51 H19        -3.5713   -6.5778   -4.3742 H         1 <0>         0.0837
     52 H20        -1.6372   -5.1214   -3.7817 H         1 <0>         0.0771
     53 H21        -3.1952   -4.3659   -3.3990 H         1 <0>         0.0686
     54 H22        -1.3338   -7.3218    0.5665 H         1 <0>         0.1164
     55 H23        -1.4276   -9.3471    1.9615 H         1 <0>         0.1197
     56 H24        -4.5941   -7.6103    4.2525 H         1 <0>         0.1212
     57 H25        -4.4848   -5.5854    2.8580 H         1 <0>         0.1201
     58 H26        -1.2477  -10.7415    4.3030 H         1 <0>         0.0481
     59 H27        -2.6426  -11.8093    4.0159 H         1 <0>         0.0660
     60 H28        -1.9220  -10.9035    2.6637 H         1 <0>         0.0684
     61 H29        -4.9713  -10.2751    4.7155 H         1 <0>         0.0482
     62 H30        -3.6382  -10.4746    5.8779 H         1 <0>         0.0659
     63 H31        -4.2353   -8.8458    5.4794 H         1 <0>         0.0689
     64 H32        -2.3016   -1.2533   -0.0238 H         1 <0>         0.0581
     65 H33        -3.3728   -2.5503    0.5579 H         1 <0>         0.0598
     66 H34        -2.0687   -1.9375    1.6029 H         1 <0>         0.0587
     67 H35         1.6958   -2.8475    1.1336 H         1 <0>         0.3790
@<TRIPOS>BOND
     1    1    2 1
     2    1   36 1
     3    1   37 1
     4    1   38 1
     5    2    3 3
     6    3    4 1
     7    4    9 1
     8    4    5 1
     9    4   35 1
    10    5    6 1
    11    5   39 1
    12    5   40 1
    13    6    7 1
    14    6   41 1
    15    6   42 1
    16    7    8 1
    17    7   23 1
    18    7    9 1
    19    9   10 1
    20    9   34 1
    21   10   11 1
    22   10   43 1
    23   10   44 1
    24   11   12 1
    25   11   13 1
    26   11   25 1
    27   13   23 1
    28   13   14 2
    29   14   20 1
    30   14   15 1
    31   15   16 1
    32   15   45 1
    33   15   46 1
    34   16   17 1
    35   16   47 1
    36   16   48 1
    37   17   18 2
    38   17   19 1
    39   19   20 2
    40   19   49 1
    41   20   21 1
    42   21   22 1
    43   21   50 1
    44   21   51 1
    45   22   23 1
    46   22   52 1
    47   22   53 1
    48   23   24 1
    49   25   30 ar
    50   25   26 ar
    51   26   27 ar
    52   26   54 1
    53   27   28 ar
    54   27   55 1
    55   28   29 ar
    56   28   31 1
    57   29   30 ar
    58   29   56 1
    59   30   57 1
    60   31   32 1
    61   31   33 1
    62   32   58 1
    63   32   59 1
    64   32   60 1
    65   33   61 1
    66   33   62 1
    67   33   63 1
    68   34   64 1
    69   34   65 1
    70   34   66 1
    71   35   67 1
@<TRIPOS>MOLECULE
CHEMBL1215330
   48    52     0     0     0
SMALL
USER_CHARGES

@<TRIPOS>ATOM
      1 C1         -0.0167    1.3782    0.0096 C.ar      1 <0>        -0.0783
      2 C2          1.1703    2.0860    0.0021 C.ar      1 <0>        -0.1515
      3 C3          2.3786    1.4101   -0.0131 C.ar      1 <0>         0.1046
      4 C4          2.3962    0.0256   -0.0207 C.ar      1 <0>        -0.1493
      5 C5          1.2079   -0.6800   -0.0132 C.ar      1 <0>        -0.0634
      6 C6          0.0021   -0.0041    0.0020 C.ar      1 <0>        -0.1060
      7 C7         -1.2930   -0.7747    0.0103 C.3       1 <0>         0.1583
      8 H1         -2.1066   -0.1520    0.3822 H         1 <0>         0.1053
      9 C8         -1.6150   -1.3033   -1.3902 C.3       1 <0>        -0.1010
     10 H2         -2.6396   -1.0660   -1.6767 H         1 <0>         0.1165
     11 C9         -0.6189   -0.8214   -2.4454 C.3       1 <0>        -0.1002
     12 C10        -0.9474   -1.4807   -3.7832 C.3       1 <0>        -0.0799
     13 C11        -1.0726   -2.9754   -3.6975 C.ar      1 <0>        -0.0654
     14 C12        -0.9593   -3.7218   -4.8405 C.ar      1 <0>        -0.0898
     15 C13        -1.0833   -5.1133   -4.7902 C.ar      1 <0>        -0.1024
     16 C14        -1.3266   -5.7597   -3.5722 C.ar      1 <0>        -0.0929
     17 C15        -1.4372   -5.0219   -2.4270 C.ar      1 <0>        -0.0883
     18 C16        -1.3057   -3.6362   -2.4818 C.ar      1 <0>        -0.0541
     19 C17        -1.4069   -2.8085   -1.2608 C.2       1 <0>         0.1630
     20 N1         -1.2166   -3.1084   -0.0326 N.2       1 <0>        -0.2431
     21 N2         -1.1636   -1.9996    0.8215 N.pl3     1 <0>        -0.4649
     22 C18        -1.0136   -2.0435    2.2035 C.ar      1 <0>         0.2894
     23 C19        -0.9814   -0.8596    2.9368 C.ar      1 <0>        -0.1848
     24 C20        -0.8327   -0.8986    4.3041 C.ar      1 <0>        -0.0100
     25 C21        -0.7142   -2.1288    4.9586 C.ar      1 <0>        -0.0835
     26 C22        -0.7473   -3.3167    4.2197 C.ar      1 <0>         0.0513
     27 C23        -0.9017   -3.2702    2.8510 C.ar      1 <0>        -0.1622
     28 Cl1        -0.6006   -4.8468    5.0266 Cl        1 <0>        -0.0493
     29 C24        -0.5589   -2.1728    6.3814 C.1       1 <0>         0.2603
     30 N3         -0.4356   -2.2076    7.5102 N.1       1 <0>        -0.4182
     31 C25        -0.9578   -5.9040   -6.0257 C.2       1 <0>         0.5152
     32 O1         -0.7456   -5.3431   -7.0921 O.co2     1 <0>        -0.6833
     33 O2         -1.0657   -7.1221   -5.9860 O.co2     1 <0>        -0.6820
     34 F1          3.5396    2.1009   -0.0209 F         1 <0>        -0.1389
     35 H3         -0.9592    1.9052    0.0260 H         1 <0>         0.1355
     36 H4          1.1554    3.1659    0.0077 H         1 <0>         0.1374
     37 H5          3.3381   -0.5027   -0.0329 H         1 <0>         0.1367
     38 H6          1.2213   -1.7599   -0.0195 H         1 <0>         0.1301
     39 H7         -0.6902    0.2616   -2.5459 H         1 <0>         0.0780
     40 H8          0.3922   -1.0943   -2.1434 H         1 <0>         0.0744
     41 H9         -1.8879   -1.0719   -4.1526 H         1 <0>         0.0791
     42 H10        -0.1596   -1.2364   -4.4958 H         1 <0>         0.0822
     43 H11        -0.7728   -3.2329   -5.7853 H         1 <0>         0.1326
     44 H12        -1.4260   -6.8346   -3.5379 H         1 <0>         0.1337
     45 H13        -1.6259   -5.5115   -1.4830 H         1 <0>         0.1245
     46 H14        -1.0730    0.0904    2.4313 H         1 <0>         0.1380
     47 H15        -0.8072    0.0201    4.8714 H         1 <0>         0.1435
     48 H16        -0.9318   -4.1864    2.2800 H         1 <0>         0.1533
@<TRIPOS>BOND
     1    1    6 ar
     2    1    2 ar
     3    1   35 1
     4    2    3 ar
     5    2   36 1
     6    3    4 ar
     7    3   34 1
     8    4    5 ar
     9    4   37 1
    10    5    6 ar
    11    5   38 1
    12    6    7 1
    13    7    8 1
    14    7   21 1
    15    7    9 1
    16    9   10 1
    17    9   19 1
    18    9   11 1
    19   11   12 1
    20   11   39 1
    21   11   40 1
    22   12   13 1
    23   12   41 1
    24   12   42 1
    25   13   18 ar
    26   13   14 ar
    27   14   15 ar
    28   14   43 1
    29   15   16 ar
    30   15   31 1
    31   16   17 ar
    32   16   44 1
    33   17   18 ar
    34   17   45 1
    35   18   19 1
    36   19   20 2
    37   20   21 1
    38   21   22 1
    39   22   27 ar
    40   22   23 ar
    41   23   24 ar
    42   23   46 1
    43   24   25 ar
    44   24   47 1
    45   25   26 ar
    46   25   29 1
    47   26   27 ar
    48   26   28 1
    49   27   48 1
    50   29   30 3
    51   31   32 2
    52   31   33 1
@<TRIPOS>MOLECULE
CHEMBL1215329
   48    52     0     0     0
SMALL
USER_CHARGES

@<TRIPOS>ATOM
      1 C1         -0.0167    1.3782    0.0096 C.ar      1 <0>        -0.0784
      2 C2          1.1703    2.0860    0.0021 C.ar      1 <0>        -0.1515
      3 C3          2.3786    1.4101   -0.0131 C.ar      1 <0>         0.1046
      4 C4          2.3962    0.0256   -0.0207 C.ar      1 <0>        -0.1493
      5 C5          1.2079   -0.6800   -0.0132 C.ar      1 <0>        -0.0634
      6 C6          0.0021   -0.0041    0.0020 C.ar      1 <0>        -0.1061
      7 C7         -1.2930   -0.7747    0.0103 C.3       1 <0>         0.1583
      8 H1         -2.1135   -0.1481   -0.3393 H         1 <0>         0.1054
      9 C8         -1.5883   -1.3184    1.4108 C.3       1 <0>        -0.1010
     10 H2         -2.6071   -1.0843    1.7194 H         1 <0>         0.1165
     11 C9         -0.5720   -0.8477    2.4520 C.3       1 <0>        -0.1002
     12 C10        -0.8749   -1.5214    3.7886 C.3       1 <0>        -0.0799
     13 C11        -1.0020   -3.0151    3.6893 C.ar      1 <0>        -0.0655
     14 C12        -0.8668   -3.7737    4.8219 C.ar      1 <0>        -0.0898
     15 C13        -0.9924   -5.1645    4.7590 C.ar      1 <0>        -0.1024
     16 C14        -1.2591   -5.7979    3.5391 C.ar      1 <0>        -0.0929
     17 C15        -1.3910   -5.0478    2.4041 C.ar      1 <0>        -0.0883
     18 C16        -1.2583   -3.6628    2.4712 C.ar      1 <0>        -0.0541
     19 C17        -1.3828   -2.8220    1.2614 C.2       1 <0>         0.1630
     20 N1         -1.2160   -3.1087    0.0266 N.2       1 <0>        -0.2431
     21 N2         -1.1792   -1.9908   -0.8164 N.pl3     1 <0>        -0.4649
     22 C18        -1.0554   -2.0198   -2.2014 C.ar      1 <0>         0.2894
     23 C19        -1.0254   -0.8277   -2.9214 C.ar      1 <0>        -0.1848
     24 C20        -0.9035   -0.8520   -4.2916 C.ar      1 <0>        -0.0100
     25 C21        -0.8091   -2.0756   -4.9625 C.ar      1 <0>        -0.0835
     26 C22        -0.8391   -3.2717   -4.2368 C.ar      1 <0>         0.0513
     27 C23        -0.9561   -3.2395   -2.8640 C.ar      1 <0>        -0.1622
     28 Cl1        -0.7224   -4.7935   -5.0640 Cl        1 <0>        -0.0494
     29 C24        -0.6826   -2.1042   -6.3886 C.1       1 <0>         0.2603
     30 N3         -0.5823   -2.1270   -7.5199 N.1       1 <0>        -0.4182
     31 C25        -0.8429   -5.9685    5.9832 C.2       1 <0>         0.5151
     32 O1         -0.6095   -5.4191    7.0512 O.co2     1 <0>        -0.6833
     33 O2         -0.9520   -7.1861    5.9326 O.co2     1 <0>        -0.6820
     34 F1          3.5396    2.1009   -0.0209 F         1 <0>        -0.1389
     35 H3         -0.9592    1.9052    0.0260 H         1 <0>         0.1355
     36 H4          1.1554    3.1659    0.0077 H         1 <0>         0.1374
     37 H5          3.3381   -0.5027   -0.0329 H         1 <0>         0.1367
     38 H6          1.2213   -1.7599   -0.0195 H         1 <0>         0.1301
     39 H7          0.4331   -1.1172    2.1277 H         1 <0>         0.0744
     40 H8         -0.6413    0.2342    2.5654 H         1 <0>         0.0780
     41 H9         -0.0736   -1.2847    4.4886 H         1 <0>         0.0822
     42 H10        -1.8081   -1.1166    4.1803 H         1 <0>         0.0790
     43 H11        -0.6619   -3.2949    5.7680 H         1 <0>         0.1326
     44 H12        -1.3595   -6.8723    3.4952 H         1 <0>         0.1338
     45 H13        -1.5971   -5.5273    1.4585 H         1 <0>         0.1245
     46 H14        -1.0983    0.1171   -2.4032 H         1 <0>         0.1381
     47 H15        -0.8811    0.0729   -4.8487 H         1 <0>         0.1435
     48 H16        -0.9749   -4.1618   -2.3024 H         1 <0>         0.1533
@<TRIPOS>BOND
     1    1    6 ar
     2    1    2 ar
     3    1   35 1
     4    2    3 ar
     5    2   36 1
     6    3    4 ar
     7    3   34 1
     8    4    5 ar
     9    4   37 1
    10    5    6 ar
    11    5   38 1
    12    6    7 1
    13    7    8 1
    14    7   21 1
    15    7    9 1
    16    9   10 1
    17    9   19 1
    18    9   11 1
    19   11   12 1
    20   11   39 1
    21   11   40 1
    22   12   13 1
    23   12   41 1
    24   12   42 1
    25   13   18 ar
    26   13   14 ar
    27   14   15 ar
    28   14   43 1
    29   15   16 ar
    30   15   31 1
    31   16   17 ar
    32   16   44 1
    33   17   18 ar
    34   17   45 1
    35   18   19 1
    36   19   20 2
    37   20   21 1
    38   21   22 1
    39   22   27 ar
    40   22   23 ar
    41   23   24 ar
    42   23   46 1
    43   24   25 ar
    44   24   47 1
    45   25   26 ar
    46   25   29 1
    47   26   27 ar
    48   26   28 1
    49   27   48 1
    50   29   30 3
    51   31   32 2
    52   31   33 1
@<TRIPOS>MOLECULE
CHEMBL263091
   56    58     0     0     0
SMALL
USER_CHARGES

@<TRIPOS>ATOM
      1 C1         -2.0375    5.4530    0.4051 C.3       1 <0>        -0.1040
      2 C2         -1.5065    4.2148    1.0803 C.2       1 <0>         0.1575
      3 C3         -2.3974    3.0771    1.3543 C.ar      1 <0>        -0.0557
      4 C4         -3.6597    2.9575    0.7927 C.ar      1 <0>        -0.1015
      5 C5         -4.4427    1.8545    1.1079 C.ar      1 <0>         0.1734
      6 C6         -3.9713    0.8740    1.9798 C.ar      1 <0>        -0.1054
      7 C7         -2.7171    0.9791    2.5429 C.ar      1 <0>        -0.0259
      8 C8         -1.9210    2.0748    2.2344 C.ar      1 <0>        -0.1625
      9 C9         -0.5655    2.2622    2.7799 C.2       1 <0>         0.4868
     10 O1         -0.2361    1.7761    3.8451 O.2       1 <0>        -0.4337
     11 O2          0.2957    2.9985    2.0428 O.3       1 <0>        -0.1616
     12 N1         -0.2581    4.1385    1.4213 N.2       1 <0>        -0.2540
     13 N2         -5.7136    1.7267    0.5469 N.am      1 <0>        -0.6579
     14 C10        -6.1810    0.5091    0.2073 C.2       1 <0>         0.4907
     15 O3         -5.5248   -0.4816    0.4497 O.2       1 <0>        -0.4762
     16 C11        -7.5191    0.3786   -0.4735 C.3       1 <0>         0.0869
     17 C12        -8.0972   -1.0113   -0.1997 C.3       1 <0>        -0.1428
     18 C13        -9.5109   -1.0987   -0.7784 C.3       1 <0>        -0.0147
     19 C14       -10.3252   -2.1211    0.0169 C.3       1 <0>        -0.1354
     20 C15       -10.1848    0.2719   -0.6876 C.3       1 <0>        -0.1570
     21 C16        -9.4374   -1.5277   -2.2212 C.ar      1 <0>        -0.0552
     22 C17        -8.3157   -2.1834   -2.6911 C.ar      1 <0>        -0.1485
     23 C18        -8.2481   -2.5781   -4.0162 C.ar      1 <0>         0.0764
     24 C19        -9.3041   -2.3160   -4.8727 C.ar      1 <0>        -0.1247
     25 C20       -10.4267   -1.6606   -4.4057 C.ar      1 <0>        -0.1711
     26 C21       -10.4982   -1.2696   -3.0765 C.ar      1 <0>         0.1207
     27 O4        -11.6048   -0.6296   -2.6142 O.3       1 <0>        -0.2971
     28 C22       -12.6586   -0.3970   -3.5509 C.3       1 <0>         0.0169
     29 F1         -7.1506   -3.2191   -4.4743 F         1 <0>        -0.1385
     30 C23        -7.3450    0.5706   -1.9814 C.3       1 <0>         0.4700
     31 F2         -6.4601   -0.3940   -2.4752 F         1 <0>        -0.1602
     32 F3         -8.5847    0.4341   -2.6151 F         1 <0>        -0.1379
     33 F4         -6.8308    1.8472   -2.2327 F         1 <0>        -0.1734
     34 O5         -8.4106    1.3736    0.0335 O.3       1 <0>        -0.5155
     35 H1         -1.2308    6.1762    0.2859 H         1 <0>         0.0948
     36 H2         -2.4372    5.1898   -0.5742 H         1 <0>         0.1000
     37 H3         -2.8287    5.8886    1.0153 H         1 <0>         0.0991
     38 H4         -4.0300    3.7142    0.1169 H         1 <0>         0.1523
     39 H5         -4.5945    0.0243    2.2166 H         1 <0>         0.1550
     40 H6         -2.3572    0.2167    3.2178 H         1 <0>         0.1523
     41 H7         -6.2609    2.5143    0.4013 H         1 <0>         0.4250
     42 H8         -7.4656   -1.7662   -0.6680 H         1 <0>         0.1077
     43 H9         -8.1336   -1.1843    0.8758 H         1 <0>         0.1036
     44 H10       -10.4523   -1.7676    1.0401 H         1 <0>         0.0629
     45 H11       -11.3029   -2.2476   -0.4480 H         1 <0>         0.0667
     46 H12        -9.8004   -3.0764    0.0250 H         1 <0>         0.0572
     47 H13        -9.6946    0.9639   -1.3724 H         1 <0>         0.0879
     48 H14       -11.2368    0.1781   -0.9570 H         1 <0>         0.0731
     49 H15       -10.1030    0.6502    0.3314 H         1 <0>         0.0612
     50 H16        -7.4910   -2.3878   -2.0243 H         1 <0>         0.1461
     51 H17        -9.2498   -2.6238   -5.9065 H         1 <0>         0.1371
     52 H18       -11.2501   -1.4560   -5.0740 H         1 <0>         0.1381
     53 H19       -13.4793    0.1200   -3.0536 H         1 <0>         0.1012
     54 H20       -12.2866    0.2167   -4.3713 H         1 <0>         0.0557
     55 H21       -13.0138   -1.3503   -3.9423 H         1 <0>         0.0551
     56 H22        -8.5678    1.3125    0.9857 H         1 <0>         0.3991
@<TRIPOS>BOND
     1    1    2 1
     2    1   35 1
     3    1   36 1
     4    1   37 1
     5    2   12 2
     6    2    3 1
     7    3    8 ar
     8    3    4 ar
     9    4    5 ar
    10    4   38 1
    11    5    6 ar
    12    5   13 1
    13    6    7 ar
    14    6   39 1
    15    7    8 ar
    16    7   40 1
    17    8    9 1
    18    9   10 2
    19    9   11 1
    20   11   12 1
    21   13   14 am
    22   13   41 1
    23   14   15 2
    24   14   16 1
    25   16   17 1
    26   16   30 1
    27   16   34 1
    28   17   18 1
    29   17   42 1
    30   17   43 1
    31   18   19 1
    32   18   20 1
    33   18   21 1
    34   19   44 1
    35   19   45 1
    36   19   46 1
    37   20   47 1
    38   20   48 1
    39   20   49 1
    40   21   26 ar
    41   21   22 ar
    42   22   23 ar
    43   22   50 1
    44   23   24 ar
    45   23   29 1
    46   24   25 ar
    47   24   51 1
    48   25   26 ar
    49   25   52 1
    50   26   27 1
    51   27   28 1
    52   28   53 1
    53   28   54 1
    54   28   55 1
    55   30   31 1
    56   30   32 1
    57   30   33 1
    58   34   56 1
@<TRIPOS>MOLECULE
CHEMBL263091__1
   56    58     0     0     0
SMALL
USER_CHARGES

@<TRIPOS>ATOM
      1 C1         -2.2384   -1.0991   -8.1037 C.3       1 <0>        -0.1035
      2 C2         -1.5938   -1.7537   -6.9091 C.2       1 <0>         0.1573
      3 C3         -2.1821   -1.6007   -5.5698 C.ar      1 <0>        -0.0565
      4 C4         -3.4580   -1.0991   -5.3612 C.ar      1 <0>        -0.1018
      5 C5         -3.9381   -0.9797   -4.0634 C.ar      1 <0>         0.1731
      6 C6         -3.1507   -1.3575   -2.9766 C.ar      1 <0>        -0.1049
      7 C7         -1.8815   -1.8603   -3.1701 C.ar      1 <0>        -0.0256
      8 C8         -1.3889   -1.9889   -4.4625 C.ar      1 <0>        -0.1621
      9 C9         -0.0507   -2.5266   -4.7625 C.2       1 <0>         0.4864
     10 O1          0.8598   -2.4503   -3.9596 O.2       1 <0>        -0.4329
     11 O2          0.1195   -3.1091   -5.9703 O.3       1 <0>        -0.1617
     12 N1         -0.5176   -2.4623   -7.0512 N.2       1 <0>        -0.2543
     13 N2         -5.2208   -0.4763   -3.8451 N.am      1 <0>        -0.6571
     14 C10        -5.9784   -0.9720   -2.8467 C.2       1 <0>         0.4909
     15 O3         -5.5151   -1.7940   -2.0847 O.2       1 <0>        -0.4773
     16 C11        -7.4010   -0.5048   -2.6771 C.3       1 <0>         0.0867
     17 C12        -8.2093   -1.5837   -1.9534 C.3       1 <0>        -0.1404
     18 C13        -9.6788   -1.1628   -1.8889 C.3       1 <0>        -0.0138
     19 C14       -10.0619   -0.4478   -3.1861 C.3       1 <0>        -0.1515
     20 C15       -10.5572   -2.4029   -1.7115 C.3       1 <0>        -0.1353
     21 C16        -9.8837   -0.2310   -0.7223 C.ar      1 <0>        -0.0753
     22 C17        -9.0043   -0.2537    0.3431 C.ar      1 <0>        -0.1350
     23 C18        -9.1920    0.6024    1.4147 C.ar      1 <0>         0.0685
     24 C19       -10.2613    1.4822    1.4206 C.ar      1 <0>        -0.1189
     25 C20       -11.1420    1.5070    0.3568 C.ar      1 <0>        -0.1777
     26 C21       -10.9518    0.6536   -0.7203 C.ar      1 <0>         0.1304
     27 O4        -11.8146    0.6808   -1.7706 O.3       1 <0>        -0.2965
     28 C22       -12.8919    1.6172   -1.7010 C.3       1 <0>         0.0166
     29 F1         -8.3314    0.5792    2.4558 F         1 <0>        -0.1387
     30 C23        -7.4197    0.7846   -1.8538 C.3       1 <0>         0.4712
     31 F2         -6.5363    1.7111   -2.4181 F         1 <0>        -0.1753
     32 F3         -8.7136    1.3166   -1.8497 F         1 <0>        -0.1406
     33 F4         -7.0262    0.5052   -0.5406 F         1 <0>        -0.1565
     34 O5         -7.9778   -0.2585   -3.9611 O.3       1 <0>        -0.5155
     35 H1         -1.6625   -1.3308   -8.9997 H         1 <0>         0.0946
     36 H2         -3.2555   -1.4737   -8.2185 H         1 <0>         0.0995
     37 H3         -2.2633   -0.0193   -7.9569 H         1 <0>         0.0990
     38 H4         -4.0722   -0.8047   -6.1993 H         1 <0>         0.1523
     39 H5         -3.5384   -1.2551   -1.9738 H         1 <0>         0.1555
     40 H6         -1.2758   -2.1512   -2.3245 H         1 <0>         0.1524
     41 H7         -5.5674    0.2304   -4.4119 H         1 <0>         0.4251
     42 H8         -8.1246   -2.5258   -2.4951 H         1 <0>         0.1031
     43 H9         -7.8228   -1.7101   -0.9421 H         1 <0>         0.1069
     44 H10        -9.7160   -1.0320   -4.0388 H         1 <0>         0.0572
     45 H11       -11.1455   -0.3399   -3.2352 H         1 <0>         0.0711
     46 H12        -9.5973    0.5380   -3.2086 H         1 <0>         0.0893
     47 H13       -10.3450   -2.8635   -0.7466 H         1 <0>         0.0573
     48 H14       -11.6072   -2.1134   -1.7529 H         1 <0>         0.0670
     49 H15       -10.3451   -3.1154   -2.5087 H         1 <0>         0.0621
     50 H16        -8.1703   -0.9399    0.3401 H         1 <0>         0.1489
     51 H17       -10.4070    2.1491    2.2575 H         1 <0>         0.1369
     52 H18       -11.9761    2.1930    0.3618 H         1 <0>         0.1378
     53 H19       -13.5030    1.5353   -2.5999 H         1 <0>         0.1011
     54 H20       -13.5037    1.4027   -0.8248 H         1 <0>         0.0550
     55 H21       -12.4906    2.6278   -1.6254 H         1 <0>         0.0558
     56 H22        -7.9991   -1.0343   -4.5380 H         1 <0>         0.3998
@<TRIPOS>BOND
     1    1    2 1
     2    1   35 1
     3    1   36 1
     4    1   37 1
     5    2   12 2
     6    2    3 1
     7    3    8 ar
     8    3    4 ar
     9    4    5 ar
    10    4   38 1
    11    5    6 ar
    12    5   13 1
    13    6    7 ar
    14    6   39 1
    15    7    8 ar
    16    7   40 1
    17    8    9 1
    18    9   10 2
    19    9   11 1
    20   11   12 1
    21   13   14 am
    22   13   41 1
    23   14   15 2
    24   14   16 1
    25   16   17 1
    26   16   30 1
    27   16   34 1
    28   17   18 1
    29   17   42 1
    30   17   43 1
    31   18   19 1
    32   18   20 1
    33   18   21 1
    34   19   44 1
    35   19   45 1
    36   19   46 1
    37   20   47 1
    38   20   48 1
    39   20   49 1
    40   21   26 ar
    41   21   22 ar
    42   22   23 ar
    43   22   50 1
    44   23   24 ar
    45   23   29 1
    46   24   25 ar
    47   24   51 1
    48   25   26 ar
    49   25   52 1
    50   26   27 1
    51   27   28 1
    52   28   53 1
    53   28   54 1
    54   28   55 1
    55   30   31 1
    56   30   32 1
    57   30   33 1
    58   34   56 1
@<TRIPOS>MOLECULE
CHEMBL395716
   60    64     0     0     0
SMALL
USER_CHARGES

@<TRIPOS>ATOM
      1 C1         -0.0184    1.5056    0.0103 C.3       1 <0>        -0.1190
      2 C2          0.0021   -0.0041    0.0020 C.2       1 <0>        -0.0615
      3 C3         -0.0007   -0.5975   -1.1909 C.2       1 <0>        -0.1654
      4 C4         -0.0600   -2.0867   -1.3623 C.3       1 <0>         0.2137
      5 N1          0.3247   -2.7744   -0.1314 N.pl3     1 <0>        -0.7340
      6 C5          0.0888   -2.2003    1.1125 C.ar      1 <0>         0.2258
      7 C6          0.0246   -0.7937    1.2400 C.ar      1 <0>        -0.0666
      8 C7          0.0520   -0.2632    2.5213 C.ar      1 <0>        -0.0270
      9 C8         -0.3394   -1.0786    3.6320 C.ar      1 <0>        -0.0842
     10 C9         -0.3699   -2.4485    3.4640 C.ar      1 <0>        -0.0508
     11 C10        -0.1014   -3.0020    2.2238 C.ar      1 <0>        -0.1852
     12 C11        -0.6935   -0.3763    4.8849 C.ar      1 <0>        -0.0879
     13 C12        -0.6881    1.0312    4.9023 C.ar      1 <0>         0.1162
     14 C13        -1.0438    1.7242    6.0469 C.ar      1 <0>        -0.1203
     15 C14        -1.3883    1.0402    7.1967 C.ar      1 <0>        -0.1014
     16 C15        -1.3742   -0.3429    7.2053 C.ar      1 <0>         0.0693
     17 C16        -1.0252   -1.0535    6.0575 C.ar      1 <0>         0.1078
     18 O1         -1.0103   -2.4098    6.1349 O.3       1 <0>        -0.3266
     19 C17         0.2162   -3.0233    6.5365 C.3       1 <0>         0.0333
     20 O2         -1.6992   -1.0203    8.3406 O.3       1 <0>        -0.4880
     21 O3         -0.3054    1.7389    3.8011 O.3       1 <0>        -0.2345
     22 C18         0.5095    1.0679    2.9339 C.2       1 <0>         0.1004
     23 C19         1.7067    1.5821    2.5650 C.2       1 <0>        -0.0657
     24 C20         2.0990    2.9192    3.0143 C.2       1 <0>        -0.1245
     25 C21         3.2622    3.6238    2.7489 C.2       1 <0>        -0.1112
     26 C22         3.4016    4.8816    3.2922 C.2       1 <0>        -0.1361
     27 C23         2.4053    5.3871    4.0629 C.2       1 <0>        -0.1935
     28 S1          1.2001    4.0707    4.0408 S.3       1 <0>         0.1059
     29 C24         4.3469    3.0289    1.8885 C.3       1 <0>         0.1186
     30 O4          5.4279    3.9567    1.7755 O.3       1 <0>        -0.3861
     31 C25         6.5151    3.4878    0.9755 C.3       1 <0>         0.0306
     32 C26         0.8931   -2.5006   -2.4910 C.3       1 <0>        -0.1546
     33 C27        -1.4862   -2.4950   -1.7481 C.3       1 <0>        -0.1605
     34 H1          1.0042    1.8829    0.0026 H         1 <0>         0.0708
     35 H2         -0.5456    1.8667   -0.8727 H         1 <0>         0.0684
     36 H3         -0.5286    1.8572    0.9071 H         1 <0>         0.0692
     37 H4          0.0384    0.0320   -2.0738 H         1 <0>         0.1277
     38 H5          0.7512   -3.6545   -0.1828 H         1 <0>         0.4051
     39 H6         -0.6025   -3.1213    4.2732 H         1 <0>         0.1448
     40 H7         -0.0423   -4.0774    2.1220 H         1 <0>         0.1288
     41 H8         -1.0516    2.8047    6.0410 H         1 <0>         0.1445
     42 H9         -1.6682    1.5849    8.0858 H         1 <0>         0.1457
     43 H10         1.0023   -2.7618    5.8282 H         1 <0>         0.0478
     44 H11         0.4906   -2.6702    7.5306 H         1 <0>         0.0543
     45 H12         0.0912   -4.1059    6.5572 H         1 <0>         0.0980
     46 H13        -2.6407   -1.2263    8.4198 H         1 <0>         0.3926
     47 H14         2.3721    1.0058    1.9393 H         1 <0>         0.1548
     48 H15         4.2948    5.4598    3.1070 H         1 <0>         0.1422
     49 H16         2.3533    6.3444    4.5601 H         1 <0>         0.1852
     50 H17         4.7064    2.1059    2.3434 H         1 <0>         0.0613
     51 H18         3.9476    2.8139    0.8973 H         1 <0>         0.0620
     52 H19         6.9196    2.5744    1.4115 H         1 <0>         0.0425
     53 H20         6.1608    3.2824   -0.0346 H         1 <0>         0.0426
     54 H21         7.2944    4.2491    0.9393 H         1 <0>         0.0886
     55 H22         1.9097   -2.2012   -2.2361 H         1 <0>         0.0629
     56 H23         0.8546   -3.5822   -2.6207 H         1 <0>         0.0632
     57 H24         0.5921   -2.0126   -3.4180 H         1 <0>         0.0739
     58 H25        -1.7631   -2.0084   -2.6833 H         1 <0>         0.0672
     59 H26        -1.5331   -3.5767   -1.8736 H         1 <0>         0.0614
     60 H27        -2.1767   -2.1902   -0.9617 H         1 <0>         0.0573
@<TRIPOS>BOND
     1    1    2 1
     2    1   34 1
     3    1   35 1
     4    1   36 1
     5    2    7 1
     6    2    3 2
     7    3    4 1
     8    3   37 1
     9    4    5 1
    10    4   32 1
    11    4   33 1
    12    5    6 1
    13    5   38 1
    14    6   11 ar
    15    6    7 ar
    16    7    8 ar
    17    8   22 1
    18    8    9 ar
    19    9   10 ar
    20    9   12 1
    21   10   11 ar
    22   10   39 1
    23   11   40 1
    24   12   17 ar
    25   12   13 ar
    26   13   14 ar
    27   13   21 1
    28   14   15 ar
    29   14   41 1
    30   15   16 ar
    31   15   42 1
    32   16   17 ar
    33   16   20 1
    34   17   18 1
    35   18   19 1
    36   19   43 1
    37   19   44 1
    38   19   45 1
    39   20   46 1
    40   21   22 1
    41   22   23 2
    42   23   24 1
    43   23   47 1
    44   24   28 1
    45   24   25 2
    46   25   26 1
    47   25   29 1
    48   26   27 2
    49   26   48 1
    50   27   28 1
    51   27   49 1
    52   29   30 1
    53   29   50 1
    54   29   51 1
    55   30   31 1
    56   31   52 1
    57   31   53 1
    58   31   54 1
    59   32   55 1
    60   32   56 1
    61   32   57 1
    62   33   58 1
    63   33   59 1
    64   33   60 1
@<TRIPOS>MOLECULE
CHEMBL372102
   63    66     0     0     0
SMALL
USER_CHARGES

@<TRIPOS>ATOM
      1 C1         -2.1309   -4.9083   -3.0655 C.3       1 <0>        -0.1033
      2 C2         -2.7464   -5.8833   -2.0951 C.2       1 <0>         0.1565
      3 C3         -3.7779   -5.4372   -1.1463 C.ar      1 <0>        -0.0553
      4 C4         -4.4230   -4.2145   -1.2561 C.ar      1 <0>        -0.1069
      5 C5         -5.3818   -3.8644   -0.3142 C.ar      1 <0>         0.1793
      6 C6         -5.6970   -4.7279    0.7341 C.ar      1 <0>        -0.1053
      7 C7         -5.0652   -5.9476    0.8533 C.ar      1 <0>        -0.0262
      8 C8         -4.1065   -6.3132   -0.0830 C.ar      1 <0>        -0.1644
      9 C9         -3.3911   -7.6002   -0.0400 C.2       1 <0>         0.4860
     10 O1         -3.2241   -8.2001    1.0048 O.2       1 <0>        -0.4338
     11 O2         -2.9289   -8.0844   -1.2143 O.3       1 <0>        -0.1621
     12 N1         -2.3763   -7.1257   -2.0908 N.2       1 <0>        -0.2544
     13 N2         -6.0356   -2.6363   -0.4178 N.am      1 <0>        -0.6783
     14 C10        -7.3367   -2.5350   -0.0811 C.2       1 <0>         0.5016
     15 O3         -7.9187   -3.4916    0.3848 O.2       1 <0>        -0.4962
     16 C11        -8.0682   -1.2332   -0.2836 C.3       1 <0>         0.1402
     17 C12        -8.5559   -0.7067    1.0677 C.3       1 <0>        -0.0661
     18 C13        -9.2581    0.6119    0.8693 C.ar      1 <0>        -0.0778
     19 C14        -8.5279    1.7851    0.8326 C.ar      1 <0>        -0.0914
     20 C15        -9.1720    2.9946    0.6507 C.ar      1 <0>        -0.1205
     21 C16       -10.5462    3.0309    0.5049 C.ar      1 <0>        -0.1184
     22 C17       -11.2762    1.8575    0.5407 C.ar      1 <0>        -0.1203
     23 C18       -10.6317    0.6476    0.7184 C.ar      1 <0>        -0.1172
     24 C19        -9.2680   -1.4603   -1.2055 C.3       1 <0>        -0.1347
     25 C20        -8.7831   -1.5913   -2.6507 C.3       1 <0>        -0.0139
     26 C21        -8.3002   -0.2289   -3.1521 C.3       1 <0>        -0.1496
     27 C22        -7.6304   -2.5955   -2.7128 C.3       1 <0>        -0.1600
     28 C23        -9.9165   -2.0733   -3.5191 C.ar      1 <0>        -0.0646
     29 C24       -11.1582   -2.3156   -2.9635 C.ar      1 <0>        -0.1427
     30 C25       -12.1997   -2.7579   -3.7610 C.ar      1 <0>         0.0969
     31 C26       -11.9986   -2.9586   -5.1163 C.ar      1 <0>        -0.1419
     32 C27       -10.7583   -2.7172   -5.6743 C.ar      1 <0>        -0.1122
     33 C28        -9.7152   -2.2685   -4.8773 C.ar      1 <0>         0.0998
     34 O4         -8.4956   -2.0252   -5.4263 O.3       1 <0>        -0.4858
     35 F1        -13.4132   -2.9943   -3.2165 F         1 <0>        -0.1360
     36 O5         -7.1859   -0.2782   -0.8766 O.3       1 <0>        -0.5336
     37 H1         -1.3966   -5.4252   -3.6833 H         1 <0>         0.0943
     38 H2         -2.9099   -4.4883   -3.7018 H         1 <0>         0.0992
     39 H3         -1.6411   -4.1063   -2.5133 H         1 <0>         0.0988
     40 H4         -4.1826   -3.5417   -2.0660 H         1 <0>         0.1503
     41 H5         -6.4428   -4.4385    1.4596 H         1 <0>         0.1553
     42 H6         -5.3131   -6.6124    1.6676 H         1 <0>         0.1507
     43 H7         -5.5537   -1.8554   -0.7321 H         1 <0>         0.4147
     44 H8         -9.2478   -1.4240    1.5089 H         1 <0>         0.0980
     45 H9         -7.7034   -0.5679    1.7326 H         1 <0>         0.0852
     46 H10        -7.4543    1.7568    0.9465 H         1 <0>         0.1230
     47 H11        -8.6017    3.9113    0.6227 H         1 <0>         0.1209
     48 H12       -11.0495    3.9759    0.3635 H         1 <0>         0.1202
     49 H13       -12.3499    1.8859    0.4272 H         1 <0>         0.1212
     50 H14       -11.2016   -0.2694    0.7426 H         1 <0>         0.1201
     51 H15        -9.7844   -2.3741   -0.9113 H         1 <0>         0.0877
     52 H16        -9.9518   -0.6152   -1.1269 H         1 <0>         0.0999
     53 H17        -7.3518    0.0185   -2.6753 H         1 <0>         0.0786
     54 H18        -8.1645   -0.2667   -4.2329 H         1 <0>         0.0707
     55 H19        -9.0403    0.5323   -2.9052 H         1 <0>         0.0564
     56 H20        -7.8717   -3.4641   -2.1002 H         1 <0>         0.0629
     57 H21        -7.4778   -2.9101   -3.7452 H         1 <0>         0.0670
     58 H22        -6.7203   -2.1276   -2.3373 H         1 <0>         0.0575
     59 H23       -11.3162   -2.1601   -1.9065 H         1 <0>         0.1426
     60 H24       -12.8118   -3.3044   -5.7372 H         1 <0>         0.1405
     61 H25       -10.6017   -2.8742   -6.7313 H         1 <0>         0.1402
     62 H26        -7.9059   -2.7915   -5.4298 H         1 <0>         0.3855
     63 H27        -6.5365   -0.6644   -1.4801 H         1 <0>         0.3711
@<TRIPOS>BOND
     1    1    2 1
     2    1   37 1
     3    1   38 1
     4    1   39 1
     5    2   12 2
     6    2    3 1
     7    3    8 ar
     8    3    4 ar
     9    4    5 ar
    10    4   40 1
    11    5    6 ar
    12    5   13 1
    13    6    7 ar
    14    6   41 1
    15    7    8 ar
    16    7   42 1
    17    8    9 1
    18    9   10 2
    19    9   11 1
    20   11   12 1
    21   13   14 am
    22   13   43 1
    23   14   15 2
    24   14   16 1
    25   16   17 1
    26   16   24 1
    27   16   36 1
    28   17   18 1
    29   17   44 1
    30   17   45 1
    31   18   23 ar
    32   18   19 ar
    33   19   20 ar
    34   19   46 1
    35   20   21 ar
    36   20   47 1
    37   21   22 ar
    38   21   48 1
    39   22   23 ar
    40   22   49 1
    41   23   50 1
    42   24   25 1
    43   24   51 1
    44   24   52 1
    45   25   26 1
    46   25   27 1
    47   25   28 1
    48   26   53 1
    49   26   54 1
    50   26   55 1
    51   27   56 1
    52   27   57 1
    53   27   58 1
    54   28   33 ar
    55   28   29 ar
    56   29   30 ar
    57   29   59 1
    58   30   31 ar
    59   30   35 1
    60   31   32 ar
    61   31   60 1
    62   32   33 ar
    63   32   61 1
    64   33   34 1
    65   34   62 1
    66   36   63 1
@<TRIPOS>MOLECULE
CHEMBL372102__1
   63    66     0     0     0
SMALL
USER_CHARGES

@<TRIPOS>ATOM
      1 C1         -2.6208   -4.7411   -1.4573 C.3       1 <0>        -0.1040
      2 C2         -1.9600   -4.3475   -0.1614 C.2       1 <0>         0.1601
      3 C3         -2.3706   -3.1220    0.5405 C.ar      1 <0>        -0.0541
      4 C4         -3.5246   -2.4225    0.2209 C.ar      1 <0>        -0.0904
      5 C5         -3.8386   -1.2690    0.9280 C.ar      1 <0>         0.1894
      6 C6         -3.0065   -0.8127    1.9493 C.ar      1 <0>        -0.1359
      7 C7         -1.8577   -1.5001    2.2791 C.ar      1 <0>        -0.0221
      8 C8         -1.5322   -2.6574    1.5832 C.ar      1 <0>        -0.1730
      9 C9         -0.3324   -3.4605    1.8759 C.2       1 <0>         0.4871
     10 O1          0.6598   -2.9629    2.3733 O.2       1 <0>        -0.4381
     11 O2         -0.3843   -4.7754    1.5672 O.3       1 <0>        -0.1634
     12 N1         -1.0269   -5.0881    0.3499 N.2       1 <0>        -0.2564
     13 N2         -4.9978   -0.5597    0.6127 N.am      1 <0>        -0.6565
     14 C10        -6.0708   -1.2079    0.1179 C.2       1 <0>         0.4950
     15 O3         -6.0739   -2.4193    0.0598 O.2       1 <0>        -0.5055
     16 C11        -7.2669   -0.4275   -0.3633 C.3       1 <0>         0.1409
     17 C12        -7.0433    0.0058   -1.8135 C.3       1 <0>        -0.0822
     18 C13        -5.7319    0.7402   -1.9219 C.ar      1 <0>        -0.0966
     19 C14        -5.6902    2.1103   -1.7436 C.ar      1 <0>        -0.0961
     20 C15        -4.4872    2.7840   -1.8431 C.ar      1 <0>        -0.1202
     21 C16        -3.3259    2.0875   -2.1204 C.ar      1 <0>        -0.1162
     22 C17        -3.3674    0.7172   -2.2979 C.ar      1 <0>        -0.1172
     23 C18        -4.5697    0.0429   -2.1942 C.ar      1 <0>        -0.1128
     24 C19        -8.5164   -1.3065   -0.2804 C.3       1 <0>        -0.1356
     25 C20        -9.7086   -0.5557   -0.8769 C.3       1 <0>        -0.0099
     26 C21        -9.5877    0.9343   -0.5511 C.3       1 <0>        -0.1441
     27 C22        -9.7236   -0.7462   -2.3949 C.3       1 <0>        -0.1679
     28 C23       -10.9872   -1.0961   -0.2901 C.ar      1 <0>        -0.0644
     29 C24       -10.9433   -2.1145    0.6427 C.ar      1 <0>        -0.1481
     30 C25       -12.1176   -2.6108    1.1822 C.ar      1 <0>         0.0952
     31 C26       -13.3376   -2.0879    0.7877 C.ar      1 <0>        -0.1428
     32 C27       -13.3844   -1.0698   -0.1446 C.ar      1 <0>        -0.1129
     33 C28       -12.2081   -0.5676   -0.6819 C.ar      1 <0>         0.1025
     34 O4        -12.2523    0.4383   -1.5954 O.3       1 <0>        -0.4868
     35 F1        -12.0733   -3.6066    2.0942 F         1 <0>        -0.1371
     36 O5         -7.4427    0.7289    0.4576 O.3       1 <0>        -0.5353
     37 H1         -2.1869   -5.6737   -1.8179 H         1 <0>         0.0940
     38 H2         -3.6898   -4.8772   -1.2934 H         1 <0>         0.1013
     39 H3         -2.4638   -3.9570   -2.1981 H         1 <0>         0.0967
     40 H4         -4.1726   -2.7713   -0.5695 H         1 <0>         0.1584
     41 H5         -3.2640    0.0879    2.4870 H         1 <0>         0.1436
     42 H6         -1.2166   -1.1419    3.0711 H         1 <0>         0.1502
     43 H7         -5.0315    0.4000    0.7496 H         1 <0>         0.4224
     44 H8         -7.0212   -0.8743   -2.4563 H         1 <0>         0.0952
     45 H9         -7.8548    0.6632   -2.1255 H         1 <0>         0.1196
     46 H10        -6.5976    2.6545   -1.5269 H         1 <0>         0.1261
     47 H11        -4.4548    3.8546   -1.7044 H         1 <0>         0.1223
     48 H12        -2.3861    2.6139   -2.1988 H         1 <0>         0.1205
     49 H13        -2.4601    0.1730   -2.5149 H         1 <0>         0.1190
     50 H14        -4.6016   -1.0281   -2.3291 H         1 <0>         0.1138
     51 H15        -8.3505   -2.2275   -0.8393 H         1 <0>         0.0932
     52 H16        -8.7232   -1.5467    0.7625 H         1 <0>         0.0813
     53 H17        -8.7397    1.3565   -1.0901 H         1 <0>         0.0757
     54 H18       -10.5013    1.4473   -0.8518 H         1 <0>         0.0653
     55 H19        -9.4362    1.0607    0.5209 H         1 <0>         0.0631
     56 H20        -9.8810   -1.7994   -2.6273 H         1 <0>         0.0579
     57 H21       -10.5301   -0.1542   -2.8274 H         1 <0>         0.0641
     58 H22        -8.7703   -0.4208   -2.8114 H         1 <0>         0.0797
     59 H23        -9.9925   -2.5237    0.9507 H         1 <0>         0.1442
     60 H24       -14.2530   -2.4765    1.2089 H         1 <0>         0.1395
     61 H25       -14.3360   -0.6624   -0.4524 H         1 <0>         0.1396
     62 H26       -12.3132    0.1351   -2.5116 H         1 <0>         0.3877
     63 H27        -7.5895    0.5291    1.3923 H         1 <0>         0.3810
@<TRIPOS>BOND
     1    1    2 1
     2    1   37 1
     3    1   38 1
     4    1   39 1
     5    2   12 2
     6    2    3 1
     7    3    8 ar
     8    3    4 ar
     9    4    5 ar
    10    4   40 1
    11    5    6 ar
    12    5   13 1
    13    6    7 ar
    14    6   41 1
    15    7    8 ar
    16    7   42 1
    17    8    9 1
    18    9   10 2
    19    9   11 1
    20   11   12 1
    21   13   14 am
    22   13   43 1
    23   14   15 2
    24   14   16 1
    25   16   17 1
    26   16   24 1
    27   16   36 1
    28   17   18 1
    29   17   44 1
    30   17   45 1
    31   18   23 ar
    32   18   19 ar
    33   19   20 ar
    34   19   46 1
    35   20   21 ar
    36   20   47 1
    37   21   22 ar
    38   21   48 1
    39   22   23 ar
    40   22   49 1
    41   23   50 1
    42   24   25 1
    43   24   51 1
    44   24   52 1
    45   25   26 1
    46   25   27 1
    47   25   28 1
    48   26   53 1
    49   26   54 1
    50   26   55 1
    51   27   56 1
    52   27   57 1
    53   27   58 1
    54   28   33 ar
    55   28   29 ar
    56   29   30 ar
    57   29   59 1
    58   30   31 ar
    59   30   35 1
    60   31   32 ar
    61   31   60 1
    62   32   33 ar
    63   32   61 1
    64   33   34 1
    65   34   62 1
    66   36   63 1
@<TRIPOS>MOLECULE
CHEMBL373498
   51    53     0     0     0
SMALL
USER_CHARGES

@<TRIPOS>ATOM
      1 C1          0.8487    0.1134    0.7990 C.3       1 <0>        -0.1595
      2 C2         -0.1117   -0.1321   -0.3664 C.3       1 <0>        -0.0127
      3 C3          0.3609   -1.3453   -1.1700 C.3       1 <0>        -0.1356
      4 C4         -1.5169   -0.3968    0.1778 C.3       1 <0>        -0.1539
      5 C5         -1.7352    0.4269    1.4485 C.3       1 <0>         0.0813
      6 C6         -3.0991    0.0835    2.0509 C.3       1 <0>         0.0831
      7 N1         -3.3599    0.9562    3.1984 N.pl3     1 <0>        -0.4977
      8 C7         -3.1071    0.6688    4.5038 C.2       1 <0>         0.2672
      9 N2         -3.4604    1.6681    5.2583 N.2       1 <0>        -0.4892
     10 C8         -3.9644    2.6662    4.4878 C.ar      1 <0>         0.0400
     11 C9         -3.9021    2.2251    3.1548 C.ar      1 <0>         0.0741
     12 C10        -4.3506    3.0501    2.1328 C.ar      1 <0>        -0.1277
     13 C11        -4.8521    4.2989    2.4335 C.ar      1 <0>        -0.0970
     14 C12        -4.9103    4.7351    3.7492 C.ar      1 <0>        -0.1318
     15 C13        -4.4795    3.9339    4.7688 C.ar      1 <0>        -0.0616
     16 C14        -1.6903    1.9170    1.1044 C.3       1 <0>         0.4610
     17 F1         -2.6654    2.2032    0.1428 F         1 <0>        -0.1703
     18 F2         -1.9375    2.6696    2.2575 F         1 <0>        -0.1573
     19 F3         -0.4270    2.2408    0.5981 F         1 <0>        -0.1488
     20 O1         -0.7073    0.1253    2.3942 O.3       1 <0>        -0.5176
     21 C15        -0.1392    1.0819   -1.2590 C.ar      1 <0>        -0.0593
     22 C16        -1.3203    1.4697   -1.8621 C.ar      1 <0>        -0.1416
     23 C17        -1.3460    2.5851   -2.6816 C.ar      1 <0>         0.0728
     24 C18        -0.1883    3.3133   -2.8985 C.ar      1 <0>        -0.1234
     25 C19         0.9938    2.9278   -2.2968 C.ar      1 <0>        -0.1741
     26 C20         1.0197    1.8136   -1.4708 C.ar      1 <0>         0.1252
     27 O2          2.1812    1.4364   -0.8735 O.3       1 <0>        -0.2948
     28 C21         3.3356    2.2365   -1.1364 C.3       1 <0>         0.0151
     29 F4         -2.5015    2.9632   -3.2708 F         1 <0>        -0.1396
     30 H1          1.8698    0.1724    0.4220 H         1 <0>         0.0716
     31 H2          0.5890    1.0497    1.2928 H         1 <0>         0.0939
     32 H3          0.7716   -0.7072    1.5123 H         1 <0>         0.0575
     33 H4          0.2970   -2.2393   -0.5496 H         1 <0>         0.0615
     34 H5         -0.2714   -1.4673   -2.0494 H         1 <0>         0.0555
     35 H6          1.3938   -1.1935   -1.4834 H         1 <0>         0.0651
     36 H7         -2.2562   -0.1124   -0.5710 H         1 <0>         0.0964
     37 H8         -1.6233   -1.4567    0.4091 H         1 <0>         0.1009
     38 H9         -3.8752    0.2295    1.2996 H         1 <0>         0.1090
     39 H10        -3.1006   -0.9564    2.3776 H         1 <0>         0.1216
     40 H11        -2.6764   -0.2546    4.8618 H         1 <0>         0.2106
     41 H12        -4.3069    2.7156    1.1068 H         1 <0>         0.1265
     42 H13        -5.2015    4.9420    1.6393 H         1 <0>         0.1285
     43 H14        -5.3051    5.7158    3.9702 H         1 <0>         0.1287
     44 H15        -4.5282    4.2840    5.7893 H         1 <0>         0.1280
     45 H16        -0.6765   -0.8044    2.6586 H         1 <0>         0.3900
     46 H17        -2.2237    0.9023   -1.6944 H         1 <0>         0.1429
     47 H18        -0.2096    4.1829   -3.5387 H         1 <0>         0.1366
     48 H19         1.8966    3.4957   -2.4665 H         1 <0>         0.1374
     49 H20         3.5427    2.2350   -2.2066 H         1 <0>         0.0549
     50 H21         3.1532    3.2581   -0.8030 H         1 <0>         0.0555
     51 H22         4.1916    1.8267   -0.6002 H         1 <0>         0.1010
@<TRIPOS>BOND
     1    1    2 1
     2    1   30 1
     3    1   31 1
     4    1   32 1
     5    2    3 1
     6    2    4 1
     7    2   21 1
     8    3   33 1
     9    3   34 1
    10    3   35 1
    11    4    5 1
    12    4   36 1
    13    4   37 1
    14    5    6 1
    15    5   16 1
    16    5   20 1
    17    6    7 1
    18    6   38 1
    19    6   39 1
    20    7   11 1
    21    7    8 1
    22    8    9 2
    23    8   40 1
    24    9   10 1
    25   10   15 ar
    26   10   11 ar
    27   11   12 ar
    28   12   13 ar
    29   12   41 1
    30   13   14 ar
    31   13   42 1
    32   14   15 ar
    33   14   43 1
    34   15   44 1
    35   16   17 1
    36   16   18 1
    37   16   19 1
    38   20   45 1
    39   21   26 ar
    40   21   22 ar
    41   22   23 ar
    42   22   46 1
    43   23   24 ar
    44   23   29 1
    45   24   25 ar
    46   24   47 1
    47   25   26 ar
    48   25   48 1
    49   26   27 1
    50   27   28 1
    51   28   49 1
    52   28   50 1
    53   28   51 1
@<TRIPOS>MOLECULE
CHEMBL373498__1
   52    54     0     0     0
SMALL
USER_CHARGES

@<TRIPOS>ATOM
      1 C1          0.8487    0.1134    0.7990 C.3       1 <0>        -0.1610
      2 C2         -0.1117   -0.1321   -0.3664 C.3       1 <0>        -0.0105
      3 C3          0.3609   -1.3453   -1.1700 C.3       1 <0>        -0.1387
      4 C4         -1.5169   -0.3968    0.1778 C.3       1 <0>        -0.1550
      5 C5         -1.7352    0.4269    1.4485 C.3       1 <0>         0.0806
      6 C6         -3.0991    0.0835    2.0509 C.3       1 <0>         0.0670
      7 N1         -3.3599    0.9562    3.1984 N.pl3     1 <0>        -0.4383
      8 C7         -3.1071    0.6688    4.5038 C.cat     1 <0>         0.3773
      9 N2         -3.4604    1.6681    5.2583 N.pl3     1 <0>        -0.4825
     10 C8         -3.9644    2.6662    4.4878 C.ar      1 <0>         0.0375
     11 C9         -3.9021    2.2251    3.1548 C.ar      1 <0>         0.1029
     12 C10        -4.3506    3.0501    2.1328 C.ar      1 <0>        -0.1079
     13 C11        -4.8521    4.2989    2.4335 C.ar      1 <0>        -0.0602
     14 C12        -4.9103    4.7351    3.7492 C.ar      1 <0>        -0.0819
     15 C13        -4.4795    3.9339    4.7688 C.ar      1 <0>        -0.0738
     16 C14        -1.6903    1.9170    1.1044 C.3       1 <0>         0.4596
     17 F1         -2.6654    2.2032    0.1428 F         1 <0>        -0.1637
     18 F2         -1.9375    2.6696    2.2575 F         1 <0>        -0.1740
     19 F3         -0.4270    2.2408    0.5981 F         1 <0>        -0.1331
     20 O1         -0.7073    0.1253    2.3942 O.3       1 <0>        -0.5187
     21 C15        -0.1392    1.0819   -1.2590 C.ar      1 <0>        -0.0698
     22 C16        -1.3203    1.4697   -1.8621 C.ar      1 <0>        -0.1455
     23 C17        -1.3460    2.5851   -2.6816 C.ar      1 <0>         0.0733
     24 C18        -0.1883    3.3133   -2.8985 C.ar      1 <0>        -0.1188
     25 C19         0.9938    2.9278   -2.2968 C.ar      1 <0>        -0.1710
     26 C20         1.0197    1.8136   -1.4708 C.ar      1 <0>         0.1269
     27 O2          2.1812    1.4364   -0.8735 O.3       1 <0>        -0.2969
     28 C21         3.3356    2.2365   -1.1364 C.3       1 <0>         0.0140
     29 F4         -2.5015    2.9632   -3.2708 F         1 <0>        -0.1378
     30 H1          1.8698    0.1724    0.4220 H         1 <0>         0.0781
     31 H2          0.5890    1.0497    1.2928 H         1 <0>         0.0897
     32 H3          0.7716   -0.7072    1.5123 H         1 <0>         0.0572
     33 H4          0.2970   -2.2393   -0.5496 H         1 <0>         0.0630
     34 H5         -0.2714   -1.4673   -2.0494 H         1 <0>         0.0587
     35 H6          1.3938   -1.1935   -1.4834 H         1 <0>         0.0691
     36 H7         -2.2562   -0.1124   -0.5710 H         1 <0>         0.1032
     37 H8         -1.6233   -1.4567    0.4091 H         1 <0>         0.1083
     38 H9         -3.8752    0.2295    1.2996 H         1 <0>         0.1395
     39 H10        -3.1006   -0.9564    2.3776 H         1 <0>         0.1484
     40 H11        -2.6764   -0.2546    4.8618 H         1 <0>         0.2649
     41 H12        -4.3069    2.7156    1.1068 H         1 <0>         0.1543
     42 H13        -5.2015    4.9420    1.6393 H         1 <0>         0.1559
     43 H14        -5.3051    5.7158    3.9702 H         1 <0>         0.1563
     44 H15        -4.5282    4.2840    5.7893 H         1 <0>         0.1524
     45 H16        -0.6765   -0.8044    2.6586 H         1 <0>         0.3972
     46 H17        -2.2237    0.9023   -1.6944 H         1 <0>         0.1416
     47 H18        -0.2096    4.1829   -3.5387 H         1 <0>         0.1397
     48 H19         1.8966    3.4957   -2.4665 H         1 <0>         0.1403
     49 H20         3.5427    2.2350   -2.2066 H         1 <0>         0.0583
     50 H21         3.1532    3.2581   -0.8030 H         1 <0>         0.0566
     51 H22         4.1916    1.8267   -0.6002 H         1 <0>         0.1037
     52 H23        -3.3767    1.6959    6.2243 H         1 <0>         0.4637
@<TRIPOS>BOND
     1    1    2 1
     2    1   30 1
     3    1   31 1
     4    1   32 1
     5    2    3 1
     6    2    4 1
     7    2   21 1
     8    3   33 1
     9    3   34 1
    10    3   35 1
    11    4    5 1
    12    4   36 1
    13    4   37 1
    14    5    6 1
    15    5   16 1
    16    5   20 1
    17    6    7 1
    18    6   38 1
    19    6   39 1
    20    7   11 1
    21    7    8 1
    22    8    9 2
    23    8   40 1
    24    9   10 1
    25    9   52 1
    26   10   15 ar
    27   10   11 ar
    28   11   12 ar
    29   12   13 ar
    30   12   41 1
    31   13   14 ar
    32   13   42 1
    33   14   15 ar
    34   14   43 1
    35   15   44 1
    36   16   17 1
    37   16   18 1
    38   16   19 1
    39   20   45 1
    40   21   26 ar
    41   21   22 ar
    42   22   23 ar
    43   22   46 1
    44   23   24 ar
    45   23   29 1
    46   24   25 ar
    47   24   47 1
    48   25   26 ar
    49   25   48 1
    50   26   27 1
    51   27   28 1
    52   28   49 1
    53   28   50 1
    54   28   51 1
@<TRIPOS>MOLECULE
CHEMBL373498__2
   51    53     0     0     0
SMALL
USER_CHARGES

@<TRIPOS>ATOM
      1 C1          0.1852    0.4678   -1.5638 C.3       1 <0>        -0.1372
      2 C2         -0.1055    0.5965   -0.0671 C.3       1 <0>        -0.0108
      3 C3         -0.1666    2.0767    0.3151 C.3       1 <0>        -0.1573
      4 C4         -1.4463   -0.0682    0.2510 C.3       1 <0>        -0.1560
      5 C5         -2.0818    0.6191    1.4612 C.3       1 <0>         0.0808
      6 C6         -3.4709    0.0288    1.7118 C.3       1 <0>         0.0818
      7 N1         -4.0794    0.6869    2.8707 N.pl3     1 <0>        -0.4943
      8 C7         -4.0487    0.2451    4.1570 C.2       1 <0>         0.2704
      9 N2         -4.6883    1.0736    4.9298 N.2       1 <0>        -0.4886
     10 C8         -5.1736    2.1047    4.1914 C.ar      1 <0>         0.0456
     11 C9         -4.7852    1.8733    2.8607 C.ar      1 <0>         0.0630
     12 C10        -5.1416    2.7778    1.8701 C.ar      1 <0>        -0.1072
     13 C11        -5.8727    3.8994    2.2004 C.ar      1 <0>        -0.0998
     14 C12        -6.2530    4.1290    3.5147 C.ar      1 <0>        -0.1294
     15 C13        -5.9170    3.2460    4.5019 C.ar      1 <0>        -0.0623
     16 C14        -1.2031    0.3965    2.6938 C.3       1 <0>         0.4618
     17 F1          0.0817    0.8916    2.4462 F         1 <0>        -0.1462
     18 F2         -1.7580    1.0666    3.7893 F         1 <0>        -0.1648
     19 F3         -1.1296   -0.9724    2.9730 F         1 <0>        -0.1718
     20 O1         -2.1986    2.0203    1.2063 O.3       1 <0>        -0.5127
     21 C15         0.9891   -0.0801    0.7172 C.ar      1 <0>        -0.0506
     22 C16         0.7167   -1.2294    1.4340 C.ar      1 <0>        -0.1593
     23 C17         1.7221   -1.8514    2.1542 C.ar      1 <0>         0.0750
     24 C18         3.0019   -1.3226    2.1576 C.ar      1 <0>        -0.1257
     25 C19         3.2770   -0.1738    1.4418 C.ar      1 <0>        -0.1705
     26 C20         2.2718    0.4474    0.7151 C.ar      1 <0>         0.1181
     27 O2          2.5425    1.5750    0.0056 O.3       1 <0>        -0.3020
     28 C21         3.8853    2.0620    0.0489 C.3       1 <0>         0.0208
     29 F4          1.4543   -2.9752    2.8547 F         1 <0>        -0.1391
     30 H1          1.0946    1.0177   -1.8059 H         1 <0>         0.0709
     31 H2          0.3174   -0.5836   -1.8191 H         1 <0>         0.0543
     32 H3         -0.6495    0.8776   -2.1325 H         1 <0>         0.0600
     33 H4         -0.9903    2.5551   -0.2149 H         1 <0>         0.0583
     34 H5         -0.3240    2.1682    1.3898 H         1 <0>         0.0936
     35 H6          0.7710    2.5613    0.0427 H         1 <0>         0.0626
     36 H7         -2.1102    0.0231   -0.6087 H         1 <0>         0.1013
     37 H8         -1.2851   -1.1226    0.4752 H         1 <0>         0.0981
     38 H9         -4.0969    0.1874    0.8337 H         1 <0>         0.1156
     39 H10        -3.3818   -1.0400    1.9063 H         1 <0>         0.1165
     40 H11        -3.5642   -0.6615    4.4883 H         1 <0>         0.2072
     41 H12        -4.8475    2.6042    0.8456 H         1 <0>         0.1159
     42 H13        -6.1508    4.6041    1.4307 H         1 <0>         0.1291
     43 H14        -6.8251    5.0118    3.7591 H         1 <0>         0.1287
     44 H15        -6.2171    3.4352    5.5219 H         1 <0>         0.1281
     45 H16        -2.7434    2.2361    0.4371 H         1 <0>         0.3871
     46 H17        -0.2812   -1.6425    1.4328 H         1 <0>         0.1538
     47 H18         3.7852   -1.8085    2.7205 H         1 <0>         0.1367
     48 H19         4.2752    0.2387    1.4450 H         1 <0>         0.1375
     49 H20         4.1551    2.2926    1.0796 H         1 <0>         0.0558
     50 H21         4.5606    1.3009   -0.3419 H         1 <0>         0.0555
     51 H22         3.9643    2.9641   -0.5578 H         1 <0>         0.1015
@<TRIPOS>BOND
     1    1    2 1
     2    1   30 1
     3    1   31 1
     4    1   32 1
     5    2    3 1
     6    2    4 1
     7    2   21 1
     8    3   33 1
     9    3   34 1
    10    3   35 1
    11    4    5 1
    12    4   36 1
    13    4   37 1
    14    5    6 1
    15    5   16 1
    16    5   20 1
    17    6    7 1
    18    6   38 1
    19    6   39 1
    20    7   11 1
    21    7    8 1
    22    8    9 2
    23    8   40 1
    24    9   10 1
    25   10   15 ar
    26   10   11 ar
    27   11   12 ar
    28   12   13 ar
    29   12   41 1
    30   13   14 ar
    31   13   42 1
    32   14   15 ar
    33   14   43 1
    34   15   44 1
    35   16   17 1
    36   16   18 1
    37   16   19 1
    38   20   45 1
    39   21   26 ar
    40   21   22 ar
    41   22   23 ar
    42   22   46 1
    43   23   24 ar
    44   23   29 1
    45   24   25 ar
    46   24   47 1
    47   25   26 ar
    48   25   48 1
    49   26   27 1
    50   27   28 1
    51   28   49 1
    52   28   50 1
    53   28   51 1
@<TRIPOS>MOLECULE
CHEMBL373498__3
   52    54     0     0     0
SMALL
USER_CHARGES

@<TRIPOS>ATOM
      1 C1          0.1852    0.4678   -1.5638 C.3       1 <0>        -0.1403
      2 C2         -0.1055    0.5965   -0.0671 C.3       1 <0>        -0.0086
      3 C3         -0.1666    2.0767    0.3151 C.3       1 <0>        -0.1590
      4 C4         -1.4463   -0.0682    0.2510 C.3       1 <0>        -0.1571
      5 C5         -2.0818    0.6191    1.4612 C.3       1 <0>         0.0803
      6 C6         -3.4709    0.0288    1.7118 C.3       1 <0>         0.0659
      7 N1         -4.0794    0.6869    2.8707 N.pl3     1 <0>        -0.4355
      8 C7         -4.0487    0.2451    4.1570 C.cat     1 <0>         0.3777
      9 N2         -4.6883    1.0736    4.9298 N.pl3     1 <0>        -0.4826
     10 C8         -5.1736    2.1047    4.1914 C.ar      1 <0>         0.0427
     11 C9         -4.7852    1.8733    2.8607 C.ar      1 <0>         0.0925
     12 C10        -5.1416    2.7778    1.8701 C.ar      1 <0>        -0.0866
     13 C11        -5.8727    3.8994    2.2004 C.ar      1 <0>        -0.0619
     14 C12        -6.2530    4.1290    3.5147 C.ar      1 <0>        -0.0807
     15 C13        -5.9170    3.2460    4.5019 C.ar      1 <0>        -0.0728
     16 C14        -1.2031    0.3964    2.6938 C.3       1 <0>         0.4606
     17 F1          0.0817    0.8916    2.4462 F         1 <0>        -0.1297
     18 F2         -1.7580    1.0666    3.7893 F         1 <0>        -0.1850
     19 F3         -1.1296   -0.9724    2.9730 F         1 <0>        -0.1650
     20 O1         -2.1986    2.0203    1.2063 O.3       1 <0>        -0.5126
     21 C15         0.9891   -0.0801    0.7172 C.ar      1 <0>        -0.0610
     22 C16         0.7167   -1.2294    1.4340 C.ar      1 <0>        -0.1644
     23 C17         1.7221   -1.8514    2.1542 C.ar      1 <0>         0.0747
     24 C18         3.0019   -1.3226    2.1576 C.ar      1 <0>        -0.1206
     25 C19         3.2770   -0.1738    1.4418 C.ar      1 <0>        -0.1672
     26 C20         2.2718    0.4474    0.7151 C.ar      1 <0>         0.1223
     27 O2          2.5425    1.5750    0.0056 O.3       1 <0>        -0.3031
     28 C21         3.8853    2.0620    0.0490 C.3       1 <0>         0.0193
     29 F4          1.4543   -2.9752    2.8547 F         1 <0>        -0.1382
     30 H1          1.0946    1.0177   -1.8059 H         1 <0>         0.0748
     31 H2          0.3174   -0.5836   -1.8191 H         1 <0>         0.0576
     32 H3         -0.6495    0.8776   -2.1325 H         1 <0>         0.0617
     33 H4         -0.9902    2.5551   -0.2148 H         1 <0>         0.0589
     34 H5         -0.3240    2.1682    1.3898 H         1 <0>         0.0889
     35 H6          0.7710    2.5613    0.0427 H         1 <0>         0.0692
     36 H7         -2.1102    0.0231   -0.6087 H         1 <0>         0.1090
     37 H8         -1.2851   -1.1226    0.4752 H         1 <0>         0.1049
     38 H9         -4.0969    0.1874    0.8337 H         1 <0>         0.1465
     39 H10        -3.3818   -1.0400    1.9063 H         1 <0>         0.1427
     40 H11        -3.5642   -0.6615    4.4883 H         1 <0>         0.2608
     41 H12        -4.8475    2.6042    0.8456 H         1 <0>         0.1462
     42 H13        -6.1508    4.6041    1.4307 H         1 <0>         0.1566
     43 H14        -6.8251    5.0118    3.7591 H         1 <0>         0.1563
     44 H15        -6.2171    3.4352    5.5219 H         1 <0>         0.1524
     45 H16        -2.7434    2.2361    0.4371 H         1 <0>         0.3941
     46 H17        -0.2812   -1.6425    1.4328 H         1 <0>         0.1502
     47 H18         3.7852   -1.8085    2.7205 H         1 <0>         0.1398
     48 H19         4.2752    0.2387    1.4450 H         1 <0>         0.1408
     49 H20         4.1551    2.2926    1.0796 H         1 <0>         0.0573
     50 H21         4.5606    1.3009   -0.3419 H         1 <0>         0.0587
     51 H22         3.9643    2.9641   -0.5578 H         1 <0>         0.1046
     52 H23        -4.8015    0.9703    5.8876 H         1 <0>         0.4642
@<TRIPOS>BOND
     1    1    2 1
     2    1   30 1
     3    1   31 1
     4    1   32 1
     5    2    3 1
     6    2    4 1
     7    2   21 1
     8    3   33 1
     9    3   34 1
    10    3   35 1
    11    4    5 1
    12    4   36 1
    13    4   37 1
    14    5    6 1
    15    5   16 1
    16    5   20 1
    17    6    7 1
    18    6   38 1
    19    6   39 1
    20    7   11 1
    21    7    8 1
    22    8    9 2
    23    8   40 1
    24    9   10 1
    25    9   52 1
    26   10   15 ar
    27   10   11 ar
    28   11   12 ar
    29   12   13 ar
    30   12   41 1
    31   13   14 ar
    32   13   42 1
    33   14   15 ar
    34   14   43 1
    35   15   44 1
    36   16   17 1
    37   16   18 1
    38   16   19 1
    39   20   45 1
    40   21   26 ar
    41   21   22 ar
    42   22   23 ar
    43   22   46 1
    44   23   24 ar
    45   23   29 1
    46   24   25 ar
    47   24   47 1
    48   25   26 ar
    49   25   48 1
    50   26   27 1
    51   27   28 1
    52   28   49 1
    53   28   50 1
    54   28   51 1
@<TRIPOS>MOLECULE
CHEMBL197161
   59    62     0     0     0
SMALL
USER_CHARGES

@<TRIPOS>ATOM
      1 C1          0.0760    1.3282    0.8380 C.3       1 <0>        -0.1416
      2 C2          0.0260   -0.0813    0.2449 C.3       1 <0>        -0.0177
      3 C3          0.8972   -1.0187    1.0834 C.3       1 <0>        -0.1623
      4 C4         -1.4183   -0.5860    0.2506 C.3       1 <0>        -0.1322
      5 C5         -2.1366   -0.0627    1.4960 C.3       1 <0>         0.1401
      6 C6         -1.3421   -0.4519    2.7443 C.3       1 <0>        -0.0825
      7 C7         -2.1411   -0.1095    3.9753 C.ar      1 <0>        -0.0965
      8 C8         -2.0124    1.1374    4.5581 C.ar      1 <0>        -0.0979
      9 C9         -2.7453    1.4515    5.6873 C.ar      1 <0>        -0.1211
     10 C10        -3.6072    0.5188    6.2335 C.ar      1 <0>        -0.1170
     11 C11        -3.7365   -0.7277    5.6501 C.ar      1 <0>        -0.1161
     12 C12        -3.0068   -1.0403    4.5185 C.ar      1 <0>        -0.1112
     13 C13        -3.5161   -0.6647    1.5706 C.2       1 <0>         0.4952
     14 O1         -3.7442   -1.7266    1.0311 O.2       1 <0>        -0.5044
     15 N1         -4.4963   -0.0229    2.2368 N.am      1 <0>        -0.6581
     16 C14        -5.7409   -0.6295    2.4001 C.ar      1 <0>         0.1986
     17 C15        -5.8265   -2.0105    2.5499 C.ar      1 <0>        -0.1306
     18 C16        -7.0525   -2.6157    2.7116 C.ar      1 <0>        -0.0090
     19 C17        -8.2146   -1.8399    2.7252 C.ar      1 <0>        -0.2156
     20 C18        -8.1209   -0.4514    2.5739 C.ar      1 <0>        -0.0790
     21 C19        -6.8963    0.1479    2.4188 C.ar      1 <0>        -0.1293
     22 C20        -9.5331    0.0734    2.6345 C.3       1 <0>         0.0915
     23 O2        -10.3851   -1.0600    2.8211 O.3       1 <0>        -0.3150
     24 C21        -9.6395   -2.1765    2.8759 C.2       1 <0>         0.5231
     25 O3        -10.0775   -3.2996    3.0281 O.2       1 <0>        -0.4495
     26 O4         -2.2413    1.3606    1.4227 O.3       1 <0>        -0.5369
     27 C22         0.5412   -0.0491   -1.1710 C.ar      1 <0>        -0.0674
     28 C23        -0.2783   -0.4388   -2.2138 C.ar      1 <0>        -0.1275
     29 C24         0.1944   -0.4092   -3.5125 C.ar      1 <0>        -0.1168
     30 C25         1.4863    0.0105   -3.7684 C.ar      1 <0>        -0.1254
     31 C26         2.3056    0.4010   -2.7257 C.ar      1 <0>        -0.1172
     32 C27         1.8315    0.3756   -1.4274 C.ar      1 <0>        -0.1144
     33 H1          1.0744    1.7441    0.7026 H         1 <0>         0.0455
     34 H2         -0.6530    1.9613    0.3322 H         1 <0>         0.0682
     35 H3         -0.1578    1.2833    1.9017 H         1 <0>         0.0768
     36 H4          0.4905   -1.0871    2.0924 H         1 <0>         0.0746
     37 H5          0.9079   -2.0090    0.6281 H         1 <0>         0.0582
     38 H6          1.9137   -0.6278    1.1271 H         1 <0>         0.0600
     39 H7         -1.9317   -0.2285   -0.6420 H         1 <0>         0.0820
     40 H8         -1.4223   -1.6760    0.2600 H         1 <0>         0.0916
     41 H9         -1.1413   -1.5231    2.7278 H         1 <0>         0.0956
     42 H10        -0.3990    0.0943    2.7597 H         1 <0>         0.1184
     43 H11        -1.3391    1.8660    4.1314 H         1 <0>         0.1256
     44 H12        -2.6443    2.4254    6.1430 H         1 <0>         0.1220
     45 H13        -4.1793    0.7640    7.1161 H         1 <0>         0.1203
     46 H14        -4.4096   -1.4565    6.0770 H         1 <0>         0.1194
     47 H15        -3.1106   -2.0129    4.0606 H         1 <0>         0.1144
     48 H16        -4.3358    0.8610    2.6027 H         1 <0>         0.4204
     49 H17        -4.9280   -2.6097    2.5390 H         1 <0>         0.1463
     50 H18        -7.1159   -3.6876    2.8273 H         1 <0>         0.1409
     51 H19        -6.8288    1.2200    2.3073 H         1 <0>         0.1387
     52 H20        -9.6395    0.7620    3.4727 H         1 <0>         0.1182
     53 H21        -9.7835    0.5788    1.7018 H         1 <0>         0.1178
     54 H22        -2.7338    1.6797    0.6541 H         1 <0>         0.3806
     55 H23        -1.2877   -0.7667   -2.0138 H         1 <0>         0.1260
     56 H24        -0.4457   -0.7144   -4.3271 H         1 <0>         0.1204
     57 H25         1.8558    0.0329   -4.7830 H         1 <0>         0.1201
     58 H26         3.3151    0.7286   -2.9257 H         1 <0>         0.1210
     59 H27         2.4703    0.6843   -0.6131 H         1 <0>         0.1207
@<TRIPOS>BOND
     1    1    2 1
     2    1   33 1
     3    1   34 1
     4    1   35 1
     5    2    3 1
     6    2    4 1
     7    2   27 1
     8    3   36 1
     9    3   37 1
    10    3   38 1
    11    4    5 1
    12    4   39 1
    13    4   40 1
    14    5    6 1
    15    5   13 1
    16    5   26 1
    17    6    7 1
    18    6   41 1
    19    6   42 1
    20    7   12 ar
    21    7    8 ar
    22    8    9 ar
    23    8   43 1
    24    9   10 ar
    25    9   44 1
    26   10   11 ar
    27   10   45 1
    28   11   12 ar
    29   11   46 1
    30   12   47 1
    31   13   14 2
    32   13   15 am
    33   15   16 1
    34   15   48 1
    35   16   21 ar
    36   16   17 ar
    37   17   18 ar
    38   17   49 1
    39   18   19 ar
    40   18   50 1
    41   19   24 1
    42   19   20 ar
    43   20   21 ar
    44   20   22 1
    45   21   51 1
    46   22   23 1
    47   22   52 1
    48   22   53 1
    49   23   24 1
    50   24   25 2
    51   26   54 1
    52   27   32 ar
    53   27   28 ar
    54   28   29 ar
    55   28   55 1
    56   29   30 ar
    57   29   56 1
    58   30   31 ar
    59   30   57 1
    60   31   32 ar
    61   31   58 1
    62   32   59 1
@<TRIPOS>MOLECULE
CHEMBL197161__1
   59    62     0     0     0
SMALL
USER_CHARGES

@<TRIPOS>ATOM
      1 C1         -0.1299   -0.0009    2.4749 C.3       1 <0>        -0.1417
      2 C2         -0.6310   -1.2128    1.6869 C.3       1 <0>        -0.0278
      3 C3         -1.9694   -1.6785    2.2639 C.3       1 <0>        -0.1623
      4 C4         -0.8159   -0.8253    0.2184 C.3       1 <0>        -0.1335
      5 C5         -1.9433    0.2021    0.1000 C.3       1 <0>         0.1393
      6 C6         -1.8826    0.8698   -1.2752 C.3       1 <0>        -0.0615
      7 C7         -0.5625    1.5798   -1.4312 C.ar      1 <0>        -0.0781
      8 C8         -0.3995    2.8552   -0.9237 C.ar      1 <0>        -0.0917
      9 C9          0.8115    3.5065   -1.0667 C.ar      1 <0>        -0.1213
     10 C10         1.8595    2.8821   -1.7168 C.ar      1 <0>        -0.1192
     11 C11         1.6968    1.6063   -2.2235 C.ar      1 <0>        -0.1207
     12 C12         0.4872    0.9534   -2.0767 C.ar      1 <0>        -0.1170
     13 C13        -3.2723   -0.4891    0.2646 C.2       1 <0>         0.5023
     14 O1         -3.6712   -1.2482   -0.5929 O.2       1 <0>        -0.4986
     15 N1         -4.0174   -0.2638    1.3648 N.am      1 <0>        -0.6742
     16 C14        -5.1894   -0.9893    1.5736 C.ar      1 <0>         0.1885
     17 C15        -5.9875   -1.3468    0.4909 C.ar      1 <0>        -0.1289
     18 C16        -7.1461   -2.0632    0.6903 C.ar      1 <0>        -0.0101
     19 C17        -7.5214   -2.4325    1.9846 C.ar      1 <0>        -0.2113
     20 C18        -6.7138   -2.0695    3.0689 C.ar      1 <0>        -0.0813
     21 C19        -5.5570   -1.3603    2.8647 C.ar      1 <0>        -0.1256
     22 C20        -7.3935   -2.6150    4.2992 C.3       1 <0>         0.0915
     23 O2         -8.5803   -3.2770    3.8538 O.3       1 <0>        -0.3143
     24 C21        -8.6712   -3.1817    2.5167 C.2       1 <0>         0.5227
     25 O3         -9.5707   -3.6464    1.8449 O.2       1 <0>        -0.4478
     26 O4         -1.7929    1.1937    1.1180 O.3       1 <0>        -0.5424
     27 C22         0.3758   -2.3296    1.7889 C.ar      1 <0>        -0.0676
     28 C23         0.9710   -2.8300    0.6460 C.ar      1 <0>        -0.1208
     29 C24         1.8945   -3.8544    0.7395 C.ar      1 <0>        -0.1157
     30 C25         2.2230   -4.3780    1.9760 C.ar      1 <0>        -0.1233
     31 C26         1.6284   -3.8770    3.1189 C.ar      1 <0>        -0.1170
     32 C27         0.7082   -2.8497    3.0258 C.ar      1 <0>        -0.1163
     33 H1          0.5922   -0.3274    3.2234 H         1 <0>         0.0586
     34 H2          0.3466    0.7039    1.7935 H         1 <0>         0.0767
     35 H3         -0.9715    0.4843    2.9694 H         1 <0>         0.0564
     36 H4         -2.5572   -0.8110    2.5640 H         1 <0>         0.0584
     37 H5         -2.5146   -2.2427    1.5072 H         1 <0>         0.0623
     38 H6         -1.7898   -2.3134    3.1314 H         1 <0>         0.0690
     39 H7          0.1099   -0.3945   -0.1630 H         1 <0>         0.0999
     40 H8         -1.0701   -1.7122   -0.3622 H         1 <0>         0.0856
     41 H9         -1.9813    0.1115   -2.0520 H         1 <0>         0.0992
     42 H10        -2.6955    1.5903   -1.3656 H         1 <0>         0.0850
     43 H11        -1.2183    3.3430   -0.4158 H         1 <0>         0.1236
     44 H12         0.9386    4.5032   -0.6708 H         1 <0>         0.1206
     45 H13         2.8054    3.3911   -1.8291 H         1 <0>         0.1199
     46 H14         2.5155    1.1186   -2.7317 H         1 <0>         0.1209
     47 H15         0.3612   -0.0448   -2.4693 H         1 <0>         0.1203
     48 H16        -3.7382    0.4032    2.0114 H         1 <0>         0.4134
     49 H17        -5.6972   -1.0608   -0.5092 H         1 <0>         0.1537
     50 H18        -7.7636   -2.3389   -0.1518 H         1 <0>         0.1424
     51 H19        -4.9348   -1.0868    3.7040 H         1 <0>         0.1400
     52 H20        -6.7377   -3.3244    4.8041 H         1 <0>         0.1182
     53 H21        -7.6522   -1.7997    4.9748 H         1 <0>         0.1188
     54 H22        -2.0272    0.8862    2.0043 H         1 <0>         0.3728
     55 H23         0.7144   -2.4209   -0.3200 H         1 <0>         0.1243
     56 H24         2.3591   -4.2458   -0.1534 H         1 <0>         0.1219
     57 H25         2.9440   -5.1788    2.0490 H         1 <0>         0.1212
     58 H26         1.8849   -4.2863    4.0849 H         1 <0>         0.1217
     59 H27         0.2464   -2.4557    3.9190 H         1 <0>         0.1207
@<TRIPOS>BOND
     1    1    2 1
     2    1   33 1
     3    1   34 1
     4    1   35 1
     5    2    3 1
     6    2    4 1
     7    2   27 1
     8    3   36 1
     9    3   37 1
    10    3   38 1
    11    4    5 1
    12    4   39 1
    13    4   40 1
    14    5    6 1
    15    5   13 1
    16    5   26 1
    17    6    7 1
    18    6   41 1
    19    6   42 1
    20    7   12 ar
    21    7    8 ar
    22    8    9 ar
    23    8   43 1
    24    9   10 ar
    25    9   44 1
    26   10   11 ar
    27   10   45 1
    28   11   12 ar
    29   11   46 1
    30   12   47 1
    31   13   14 2
    32   13   15 am
    33   15   16 1
    34   15   48 1
    35   16   21 ar
    36   16   17 ar
    37   17   18 ar
    38   17   49 1
    39   18   19 ar
    40   18   50 1
    41   19   24 1
    42   19   20 ar
    43   20   21 ar
    44   20   22 1
    45   21   51 1
    46   22   23 1
    47   22   52 1
    48   22   53 1
    49   23   24 1
    50   24   25 2
    51   26   54 1
    52   27   32 ar
    53   27   28 ar
    54   28   29 ar
    55   28   55 1
    56   29   30 ar
    57   29   56 1
    58   30   31 ar
    59   30   57 1
    60   31   32 ar
    61   31   58 1
    62   32   59 1
@<TRIPOS>MOLECULE
CHEMBL395506
   53    55     0     0     0
SMALL
USER_CHARGES

@<TRIPOS>ATOM
      1 C1          0.5603   -0.7068   -1.2371 C.3       1 <0>        -0.1686
      2 C2          0.0021   -0.0041    0.0020 C.3       1 <0>         0.1307
      3 C3          0.6388   -0.5847    1.2384 C.2       1 <0>        -0.0718
      4 C4         -0.0740   -1.3418    2.0626 C.2       1 <0>        -0.1422
      5 C5          0.5362   -1.9207    3.3111 C.3       1 <0>         0.2126
      6 N1          1.9776   -2.1244    3.1170 N.pl3     1 <0>        -0.7425
      7 C6          2.7113   -1.1138    2.4930 C.ar      1 <0>         0.2234
      8 C7          2.0607   -0.3189    1.5355 C.ar      1 <0>        -0.1077
      9 C8          2.7570    0.6963    0.8933 C.ar      1 <0>        -0.0568
     10 C9          4.0988    0.9094    1.2019 C.ar      1 <0>        -0.0896
     11 C10         4.7367    0.1082    2.1493 C.ar      1 <0>        -0.0427
     12 C11         4.0428   -0.8914    2.7951 C.ar      1 <0>        -0.1769
     13 C12         4.8512    1.9915    0.5216 C.ar      1 <0>        -0.0377
     14 C13         4.8136    2.1036   -0.8664 C.ar      1 <0>        -0.1083
     15 C14         5.5161    3.1141   -1.4954 C.ar      1 <0>         0.0644
     16 C15         6.2581    4.0156   -0.7492 C.ar      1 <0>        -0.1145
     17 C16         6.3007    3.9114    0.6283 C.ar      1 <0>        -0.1787
     18 C17         5.5962    2.9065    1.2710 C.ar      1 <0>         0.1277
     19 O1          5.6336    2.8074    2.6259 O.3       1 <0>        -0.3034
     20 C18         6.4155    3.7772    3.3260 C.3       1 <0>         0.0231
     21 F1          5.4797    3.2229   -2.8415 F         1 <0>        -0.1395
     22 C19        -0.1284   -3.2623    3.6263 C.3       1 <0>        -0.1518
     23 C20         0.3120   -0.9584    4.4793 C.3       1 <0>        -0.1574
     24 O2         -1.4130   -0.1945    0.0607 O.3       1 <0>        -0.3746
     25 C21        -2.1641    0.8178   -0.6125 C.3       1 <0>         0.0886
     26 C22        -3.6357    0.5182   -0.4873 C.2       1 <0>        -0.1535
     27 C23        -4.4752    1.4757   -0.1799 C.2       1 <0>        -0.1776
     28 H1          0.3752   -1.7783   -1.1615 H         1 <0>         0.0653
     29 H2          0.0701   -0.3154   -2.1285 H         1 <0>         0.0600
     30 H3          1.6333   -0.5273   -1.3041 H         1 <0>         0.0693
     31 H4          0.2232    1.0618   -0.0542 H         1 <0>         0.0692
     32 H5         -1.1096   -1.5460    1.8340 H         1 <0>         0.1336
     33 H6          2.4090   -2.9404    3.4152 H         1 <0>         0.4022
     34 H7          2.2624    1.3158    0.1599 H         1 <0>         0.1221
     35 H8          5.7774    0.2778    2.3830 H         1 <0>         0.1240
     36 H9          4.5421   -1.5088    3.5272 H         1 <0>         0.1249
     37 H10         4.2366    1.4017   -1.4503 H         1 <0>         0.1425
     38 H11         6.8056    4.8028   -1.2461 H         1 <0>         0.1385
     39 H12         6.8806    4.6170    1.2048 H         1 <0>         0.1397
     40 H13         6.0301    4.7749    3.1159 H         1 <0>         0.0568
     41 H14         6.3595    3.5843    4.3974 H         1 <0>         0.1026
     42 H15         7.4532    3.7121    2.9989 H         1 <0>         0.0572
     43 H16         0.0259   -3.9487    2.7938 H         1 <0>         0.0632
     44 H17         0.3125   -3.6827    4.5302 H         1 <0>         0.0630
     45 H18        -1.1969   -3.1113    3.7796 H         1 <0>         0.0746
     46 H19        -0.7577   -0.8133    4.6303 H         1 <0>         0.0657
     47 H20         0.7533   -1.3762    5.3841 H         1 <0>         0.0598
     48 H21         0.7806   -0.0000    4.2556 H         1 <0>         0.0571
     49 H22        -1.9512    1.7876   -0.1630 H         1 <0>         0.0549
     50 H23        -1.8855    0.8366   -1.6662 H         1 <0>         0.0598
     51 H24        -3.9982   -0.4858   -0.6511 H         1 <0>         0.1166
     52 H25        -4.1126    2.4798   -0.0161 H         1 <0>         0.0978
     53 H26        -5.5298    1.2611   -0.0901 H         1 <0>         0.1052
@<TRIPOS>BOND
     1    1    2 1
     2    1   28 1
     3    1   29 1
     4    1   30 1
     5    2    3 1
     6    2   24 1
     7    2   31 1
     8    3    8 1
     9    3    4 2
    10    4    5 1
    11    4   32 1
    12    5    6 1
    13    5   22 1
    14    5   23 1
    15    6    7 1
    16    6   33 1
    17    7   12 ar
    18    7    8 ar
    19    8    9 ar
    20    9   10 ar
    21    9   34 1
    22   10   11 ar
    23   10   13 1
    24   11   12 ar
    25   11   35 1
    26   12   36 1
    27   13   18 ar
    28   13   14 ar
    29   14   15 ar
    30   14   37 1
    31   15   16 ar
    32   15   21 1
    33   16   17 ar
    34   16   38 1
    35   17   18 ar
    36   17   39 1
    37   18   19 1
    38   19   20 1
    39   20   40 1
    40   20   41 1
    41   20   42 1
    42   22   43 1
    43   22   44 1
    44   22   45 1
    45   23   46 1
    46   23   47 1
    47   23   48 1
    48   24   25 1
    49   25   26 1
    50   25   49 1
    51   25   50 1
    52   26   27 2
    53   26   51 1
    54   27   52 1
    55   27   53 1
@<TRIPOS>MOLECULE
CHEMBL395506__1
   53    55     0     0     0
SMALL
USER_CHARGES

@<TRIPOS>ATOM
      1 C1         -0.0187    1.5258    0.0104 C.3       1 <0>        -0.1730
      2 C2          0.0021   -0.0041    0.0020 C.3       1 <0>         0.1291
      3 C3          0.7074   -0.4901   -1.2379 C.2       1 <0>        -0.0487
      4 C4          0.0398   -1.1687   -2.1621 C.2       1 <0>        -0.1648
      5 C5          0.7262   -1.6769   -3.4019 C.3       1 <0>         0.2179
      6 N1          1.8578   -0.8048   -3.7419 N.pl3     1 <0>        -0.7440
      7 C6          2.6984   -0.3785   -2.7121 C.ar      1 <0>         0.2207
      8 C7          2.1438   -0.2081   -1.4332 C.ar      1 <0>        -0.1128
      9 C8          2.9480    0.2146   -0.3832 C.ar      1 <0>        -0.0387
     10 C9          4.2975    0.4728   -0.6137 C.ar      1 <0>        -0.0977
     11 C10         4.8356    0.3075   -1.8901 C.ar      1 <0>        -0.0410
     12 C11         4.0405   -0.1232   -2.9294 C.ar      1 <0>        -0.1831
     13 C12         5.1649    0.9244    0.5016 C.ar      1 <0>        -0.0335
     14 C13         4.7643    1.9820    1.3151 C.ar      1 <0>        -0.1060
     15 C14         5.5761    2.3986    2.3532 C.ar      1 <0>         0.0645
     16 C15         6.7874    1.7675    2.5868 C.ar      1 <0>        -0.1161
     17 C16         7.1922    0.7175    1.7844 C.ar      1 <0>        -0.1794
     18 C17         6.3849    0.2868    0.7442 C.ar      1 <0>         0.1267
     19 O1          6.7804   -0.7493   -0.0413 O.3       1 <0>        -0.3034
     20 C18         8.0389   -1.3526    0.2657 C.3       1 <0>         0.0234
     21 F1          5.1877    3.4242    3.1421 F         1 <0>        -0.1402
     22 C19        -0.2696   -1.6930   -4.5634 C.3       1 <0>        -0.1528
     23 C20         1.2366   -3.0977   -3.1536 C.3       1 <0>        -0.1581
     24 O2          0.6932   -0.4774    1.1597 O.3       1 <0>        -0.3686
     25 C21        -0.1498   -0.6889    2.2940 C.3       1 <0>         0.0866
     26 C22         0.6792   -1.1848    3.4506 C.2       1 <0>        -0.1529
     27 C23         0.5072   -0.6761    4.6455 C.2       1 <0>        -0.1776
     28 H1          1.0039    1.9031    0.0027 H         1 <0>         0.0690
     29 H2         -0.5459    1.8868   -0.8726 H         1 <0>         0.0668
     30 H3         -0.5289    1.8773    0.9072 H         1 <0>         0.0604
     31 H4         -1.0205   -0.3814    0.0098 H         1 <0>         0.0683
     32 H5         -1.0139   -1.3600   -2.0225 H         1 <0>         0.1217
     33 H6          2.0173   -0.5321   -4.6590 H         1 <0>         0.4018
     34 H7          2.5305    0.3425    0.6046 H         1 <0>         0.1419
     35 H8          5.8822    0.5107   -2.0623 H         1 <0>         0.1223
     36 H9          4.4625   -0.2489   -3.9156 H         1 <0>         0.1229
     37 H10         3.8210    2.4759    1.1345 H         1 <0>         0.1416
     38 H11         7.4179    2.0978    3.3990 H         1 <0>         0.1376
     39 H12         8.1373    0.2294    1.9711 H         1 <0>         0.1387
     40 H13         8.0143   -1.7478    1.2812 H         1 <0>         0.0563
     41 H14         8.2334   -2.1643   -0.4354 H         1 <0>         0.1019
     42 H15         8.8290   -0.6060    0.1854 H         1 <0>         0.0565
     43 H16        -0.6385   -0.6826   -4.7397 H         1 <0>         0.0631
     44 H17         0.2260   -2.0608   -5.4618 H         1 <0>         0.0639
     45 H18        -1.1058   -2.3470   -4.3161 H         1 <0>         0.0736
     46 H19         0.3966   -3.7482   -2.9099 H         1 <0>         0.0646
     47 H20         1.7339   -3.4671   -4.0505 H         1 <0>         0.0602
     48 H21         1.9430   -3.0902   -2.3235 H         1 <0>         0.0589
     49 H22        -0.6318    0.2495    2.5684 H         1 <0>         0.0547
     50 H23        -0.9106   -1.4298    2.0482 H         1 <0>         0.0587
     51 H24         1.4152   -1.9596    3.2944 H         1 <0>         0.1160
     52 H25        -0.2288    0.0987    4.8017 H         1 <0>         0.0976
     53 H26         1.1013   -1.0315    5.4744 H         1 <0>         0.1044
@<TRIPOS>BOND
     1    1    2 1
     2    1   28 1
     3    1   29 1
     4    1   30 1
     5    2    3 1
     6    2   24 1
     7    2   31 1
     8    3    8 1
     9    3    4 2
    10    4    5 1
    11    4   32 1
    12    5    6 1
    13    5   22 1
    14    5   23 1
    15    6    7 1
    16    6   33 1
    17    7   12 ar
    18    7    8 ar
    19    8    9 ar
    20    9   10 ar
    21    9   34 1
    22   10   11 ar
    23   10   13 1
    24   11   12 ar
    25   11   35 1
    26   12   36 1
    27   13   18 ar
    28   13   14 ar
    29   14   15 ar
    30   14   37 1
    31   15   16 ar
    32   15   21 1
    33   16   17 ar
    34   16   38 1
    35   17   18 ar
    36   17   39 1
    37   18   19 1
    38   19   20 1
    39   20   40 1
    40   20   41 1
    41   20   42 1
    42   22   43 1
    43   22   44 1
    44   22   45 1
    45   23   46 1
    46   23   47 1
    47   23   48 1
    48   24   25 1
    49   25   26 1
    50   25   49 1
    51   25   50 1
    52   26   27 2
    53   26   51 1
    54   27   52 1
    55   27   53 1
@<TRIPOS>MOLECULE
CHEMBL232452
   49    51     0     0     0
SMALL
USER_CHARGES

@<TRIPOS>ATOM
      1 C1         -0.4421    1.5341    0.7744 C.3       1 <0>        -0.1251
      2 C2         -0.6285    0.0492    0.5965 C.ar      1 <0>        -0.0192
      3 C3         -0.9113   -0.7478    1.6900 C.ar      1 <0>        -0.1547
      4 C4         -1.0823   -2.1098    1.5268 C.ar      1 <0>         0.0286
      5 C5         -0.9709   -2.6747    0.2701 C.ar      1 <0>        -0.6936
      6 C6         -0.6889   -1.8775   -0.8235 C.ar      1 <0>         0.0304
      7 C7         -0.5222   -0.5149   -0.6610 C.ar      1 <0>        -0.1546
      8 C8         -0.5670   -2.4934   -2.1935 C.3       1 <0>        -0.1369
      9 S1         -1.1876   -4.4109    0.0622 S.o2      1 <0>         2.6912
     10 O1         -1.8632   -4.8776    1.2220 O.2       1 <0>        -0.9501
     11 O2         -1.7030   -4.6019   -1.2482 O.2       1 <0>        -0.9592
     12 N1          0.3188   -5.0984    0.0832 N.pl3     1 <0>        -1.1056
     13 C9          1.1290   -5.0504    1.3029 C.3       1 <0>         0.1504
     14 C10         2.2284   -3.9984    1.1438 C.3       1 <0>        -0.1731
     15 C11         1.7653   -6.4203    1.5466 C.3       1 <0>        -0.0475
     16 C12         0.6851   -7.4336    1.8251 C.2       1 <0>        -0.1714
     17 C13         0.2406   -7.8153    3.0328 C.2       1 <0>         0.0591
     18 N2         -0.7457   -8.7532    2.8920 N.pl3     1 <0>        -0.5932
     19 H1         -1.2194   -9.1780    3.6241 H         1 <0>         0.4158
     20 C14        -0.9655   -9.0044    1.5561 C.ar      1 <0>         0.0958
     21 C15        -0.0833   -8.1841    0.8290 C.ar      1 <0>        -0.0938
     22 C16        -0.0867   -8.2225   -0.5663 C.ar      1 <0>        -0.0796
     23 C17        -0.9508   -9.0554   -1.2200 C.ar      1 <0>        -0.1439
     24 C18        -1.8258   -9.8635   -0.5075 C.ar      1 <0>        -0.1010
     25 C19        -1.8328   -9.8482    0.8704 C.ar      1 <0>        -0.1289
     26 C20        -1.3896   -2.9788    2.7190 C.3       1 <0>        -0.1446
     27 H2         -1.4036    2.0363    0.6676 H         1 <0>         0.0793
     28 H3         -0.0366    1.7331    1.7664 H         1 <0>         0.0727
     29 H4          0.2485    1.9068    0.0180 H         1 <0>         0.0726
     30 H5         -0.9984   -0.3064    2.6718 H         1 <0>         0.1305
     31 H6         -0.3056    0.1084   -1.5159 H         1 <0>         0.1308
     32 H7         -1.5577   -2.5912   -2.6374 H         1 <0>         0.0965
     33 H8          0.0526   -1.8562   -2.8245 H         1 <0>         0.0754
     34 H9         -0.1077   -3.4784   -2.1095 H         1 <0>         0.0735
     35 H10         0.6648   -5.5328   -0.7121 H         1 <0>         0.4153
     36 H11         0.4951   -4.7883    2.1500 H         1 <0>         0.0923
     37 H12         2.8623   -4.2605    0.2966 H         1 <0>         0.0651
     38 H13         1.7751   -3.0224    0.9701 H         1 <0>         0.0603
     39 H14         2.8312   -3.9627    2.0512 H         1 <0>         0.0700
     40 H15         2.3276   -6.7221    0.6630 H         1 <0>         0.0782
     41 H16         2.4377   -6.3614    2.4025 H         1 <0>         0.0846
     42 H17         0.6074   -7.4382    3.9761 H         1 <0>         0.1684
     43 H18         0.5909   -7.5960   -1.1274 H         1 <0>         0.1169
     44 H19        -0.9531   -9.0848   -2.2996 H         1 <0>         0.1228
     45 H20        -2.5033  -10.5159   -1.0383 H         1 <0>         0.1250
     46 H21        -2.5183  -10.4799    1.4157 H         1 <0>         0.1191
     47 H22        -2.4656   -3.1411    2.7826 H         1 <0>         0.0926
     48 H23        -0.8833   -3.9379    2.6097 H         1 <0>         0.0919
     49 H24        -1.0422   -2.4860    3.6271 H         1 <0>         0.0706
@<TRIPOS>BOND
     1    1    2 1
     2    1   27 1
     3    1   28 1
     4    1   29 1
     5    2    7 ar
     6    2    3 ar
     7    3    4 ar
     8    3   30 1
     9    4    5 ar
    10    4   26 1
    11    5    6 ar
    12    5    9 1
    13    6    7 ar
    14    6    8 1
    15    7   31 1
    16    8   32 1
    17    8   33 1
    18    8   34 1
    19    9   10 2
    20    9   11 2
    21    9   12 1
    22   12   13 1
    23   12   35 1
    24   13   14 1
    25   13   15 1
    26   13   36 1
    27   14   37 1
    28   14   38 1
    29   14   39 1
    30   15   16 1
    31   15   40 1
    32   15   41 1
    33   16   21 1
    34   16   17 2
    35   17   18 1
    36   17   42 1
    37   18   19 1
    38   18   20 1
    39   20   25 ar
    40   20   21 ar
    41   21   22 ar
    42   22   23 ar
    43   22   43 1
    44   23   24 ar
    45   23   44 1
    46   24   25 ar
    47   24   45 1
    48   25   46 1
    49   26   47 1
    50   26   48 1
    51   26   49 1
@<TRIPOS>MOLECULE
CHEMBL232452__1
   49    51     0     0     0
SMALL
USER_CHARGES

@<TRIPOS>ATOM
      1 C1          0.9302    1.3568    0.0101 C.3       1 <0>        -0.1228
      2 C2          0.4573   -0.0741    0.0020 C.ar      1 <0>        -0.0116
      3 C3          0.1140   -0.6953    1.1883 C.ar      1 <0>        -0.1487
      4 C4         -0.3197   -2.0078    1.1808 C.ar      1 <0>         0.0319
      5 C5         -0.4107   -2.6990   -0.0129 C.ar      1 <0>        -0.6853
      6 C6         -0.0683   -2.0775   -1.1992 C.ar      1 <0>         0.0357
      7 C7          0.3614   -0.7636   -1.1923 C.ar      1 <0>        -0.1519
      8 C8         -0.1670   -2.8311   -2.5005 C.3       1 <0>        -0.1324
      9 S1         -0.9625   -4.3723   -0.0222 S.o2      1 <0>         2.6907
     10 O1         -1.6744   -4.5719    1.1913 O.2       1 <0>        -0.9557
     11 O2         -1.5497   -4.5992   -1.2961 O.2       1 <0>        -0.9628
     12 N1          0.3845   -5.3325    0.0559 N.pl3     1 <0>        -1.1084
     13 C9          1.2335   -5.3078    1.2496 C.3       1 <0>         0.1525
     14 C10         0.8198   -6.4389    2.1931 C.3       1 <0>        -0.1764
     15 C11         2.6956   -5.4947    0.8395 C.3       1 <0>        -0.0499
     16 C12         3.1392   -4.3172    0.0103 C.2       1 <0>        -0.1683
     17 C13         3.1389   -4.2388   -1.3298 C.2       1 <0>         0.0557
     18 N2          3.6101   -3.0168   -1.7258 N.pl3     1 <0>        -0.5930
     19 H1          3.7026   -2.7270   -2.6469 H         1 <0>         0.4142
     20 C14         3.9334   -2.2596   -0.6222 C.ar      1 <0>         0.1034
     21 C15         3.6466   -3.0386    0.5139 C.ar      1 <0>        -0.0962
     22 C16         3.8728   -2.5192    1.7897 C.ar      1 <0>        -0.0716
     23 C17         4.3689   -1.2534    1.9288 C.ar      1 <0>        -0.1452
     24 C18         4.6495   -0.4795    0.8114 C.ar      1 <0>        -0.0979
     25 C19         4.4426   -0.9758   -0.4573 C.ar      1 <0>        -0.1296
     26 C20        -0.6930   -2.6853    2.4742 C.3       1 <0>        -0.1444
     27 H2          0.0740    2.0230   -0.0955 H         1 <0>         0.0768
     28 H3          1.4393    1.5658    0.9509 H         1 <0>         0.0724
     29 H4          1.6192    1.5164   -0.8192 H         1 <0>         0.0696
     30 H5          0.1851   -0.1553    2.1209 H         1 <0>         0.1276
     31 H6          0.6253   -0.2769   -2.1195 H         1 <0>         0.1234
     32 H7         -1.1896   -2.7784   -2.8742 H         1 <0>         0.0934
     33 H8          0.5099   -2.3865   -3.2301 H         1 <0>         0.0676
     34 H9          0.1074   -3.8735   -2.3384 H         1 <0>         0.0742
     35 H10         0.6114   -5.9113   -0.6887 H         1 <0>         0.4154
     36 H11         1.1182   -4.3504    1.7577 H         1 <0>         0.0876
     37 H12         0.9351   -7.3964    1.6850 H         1 <0>         0.0639
     38 H13         1.4514   -6.4206    3.0813 H         1 <0>         0.0693
     39 H14        -0.2219   -6.3058    2.4853 H         1 <0>         0.0724
     40 H15         3.3171   -5.5653    1.7321 H         1 <0>         0.0853
     41 H16         2.7948   -6.4090    0.2544 H         1 <0>         0.0784
     42 H17         2.8150   -5.0242   -1.9966 H         1 <0>         0.1647
     43 H18         3.6561   -3.1154    2.6638 H         1 <0>         0.1179
     44 H19         4.5437   -0.8520    2.9161 H         1 <0>         0.1193
     45 H20         5.0405    0.5193    0.9375 H         1 <0>         0.1213
     46 H21         4.6629   -0.3653   -1.3205 H         1 <0>         0.1151
     47 H22        -1.7722   -2.6282    2.6160 H         1 <0>         0.0933
     48 H23        -0.3861   -3.7306    2.4385 H         1 <0>         0.0878
     49 H24        -0.1907   -2.1872    3.3034 H         1 <0>         0.0712
@<TRIPOS>BOND
     1    1    2 1
     2    1   27 1
     3    1   28 1
     4    1   29 1
     5    2    7 ar
     6    2    3 ar
     7    3    4 ar
     8    3   30 1
     9    4    5 ar
    10    4   26 1
    11    5    6 ar
    12    5    9 1
    13    6    7 ar
    14    6    8 1
    15    7   31 1
    16    8   32 1
    17    8   33 1
    18    8   34 1
    19    9   10 2
    20    9   11 2
    21    9   12 1
    22   12   13 1
    23   12   35 1
    24   13   14 1
    25   13   15 1
    26   13   36 1
    27   14   37 1
    28   14   38 1
    29   14   39 1
    30   15   16 1
    31   15   40 1
    32   15   41 1
    33   16   21 1
    34   16   17 2
    35   17   18 1
    36   17   42 1
    37   18   19 1
    38   18   20 1
    39   20   25 ar
    40   20   21 ar
    41   21   22 ar
    42   22   23 ar
    43   22   43 1
    44   23   24 ar
    45   23   44 1
    46   24   25 ar
    47   24   45 1
    48   25   46 1
    49   26   47 1
    50   26   48 1
    51   26   49 1
@<TRIPOS>MOLECULE
CHEMBL396029
   40    42     0     0     0
SMALL
USER_CHARGES

@<TRIPOS>ATOM
      1 C1         -0.0187    1.5258    0.0104 C.3       1 <0>        -0.1774
      2 C2          0.0021   -0.0041    0.0020 C.3       1 <0>         0.1448
      3 C3          0.7421   -0.5109    1.2415 C.3       1 <0>        -0.0441
      4 C4          0.6567   -2.0144    1.2978 C.2       1 <0>        -0.1723
      5 C5         -0.2494   -2.7380    1.9740 C.2       1 <0>         0.0591
      6 N1         -0.0125   -4.0730    1.7893 N.pl3     1 <0>        -0.5938
      7 H1         -0.5360   -4.7909    2.1784 H         1 <0>         0.4162
      8 C6          1.0797   -4.2454    0.9687 C.ar      1 <0>         0.0948
      9 C7          1.5430   -2.9635    0.6197 C.ar      1 <0>        -0.0947
     10 C8          2.6502   -2.8276   -0.2195 C.ar      1 <0>        -0.0791
     11 C9          3.2772   -3.9423   -0.7012 C.ar      1 <0>        -0.1425
     12 C10         2.8216   -5.2089   -0.3632 C.ar      1 <0>        -0.1002
     13 C11         1.7362   -5.3660    0.4710 C.ar      1 <0>        -0.1285
     14 N2          0.6878   -0.4765   -1.2033 N.pl3     1 <0>        -1.0961
     15 S1         -0.1875   -0.8749   -2.5515 S.o2      1 <0>         2.6825
     16 O1          0.7512   -1.2650   -3.5445 O.2       1 <0>        -0.9344
     17 O2         -1.2362   -1.7295   -2.1169 O.2       1 <0>        -0.9280
     18 C12        -0.9505    0.6032   -3.1327 C.ar      1 <0>        -0.6760
     19 C13        -2.2036    0.9628   -2.6700 C.ar      1 <0>         0.0703
     20 C14        -2.8027    2.1233   -3.1263 C.ar      1 <0>        -0.1219
     21 C15        -2.1484    2.9243   -4.0451 C.ar      1 <0>         0.0368
     22 C16        -0.8950    2.5651   -4.5072 C.ar      1 <0>        -0.1216
     23 C17        -0.2941    1.4069   -4.0476 C.ar      1 <0>         0.0735
     24 Cl1         1.2815    0.9592   -4.6229 Cl        1 <0>         0.0036
     25 Cl2        -2.9007    4.3799   -4.6187 Cl        1 <0>        -0.0260
     26 Cl3        -3.0246   -0.0424   -1.5170 Cl        1 <0>         0.0030
     27 H2          1.0039    1.9031    0.0027 H         1 <0>         0.0688
     28 H3         -0.5459    1.8868   -0.8726 H         1 <0>         0.0530
     29 H4         -0.5289    1.8773    0.9072 H         1 <0>         0.0745
     30 H5         -1.0205   -0.3814    0.0098 H         1 <0>         0.0950
     31 H6          1.7879   -0.2080    1.1895 H         1 <0>         0.0797
     32 H7          0.2852   -0.0874    2.1360 H         1 <0>         0.0868
     33 H8         -1.0471   -2.3273    2.5752 H         1 <0>         0.1687
     34 H9          3.0099   -1.8451   -0.4873 H         1 <0>         0.1170
     35 H10         4.1338   -3.8366   -1.3504 H         1 <0>         0.1233
     36 H11         3.3272   -6.0803   -0.7524 H         1 <0>         0.1253
     37 H12         1.3886   -6.3559    0.7272 H         1 <0>         0.1194
     38 H13         1.6545   -0.5560   -1.2117 H         1 <0>         0.4185
     39 H14        -3.7812    2.4037   -2.7656 H         1 <0>         0.1611
     40 H15        -0.3842    3.1904   -5.2244 H         1 <0>         0.1611
@<TRIPOS>BOND
     1    1    2 1
     2    1   27 1
     3    1   28 1
     4    1   29 1
     5    2    3 1
     6    2   14 1
     7    2   30 1
     8    3    4 1
     9    3   31 1
    10    3   32 1
    11    4    9 1
    12    4    5 2
    13    5    6 1
    14    5   33 1
    15    6    7 1
    16    6    8 1
    17    8   13 ar
    18    8    9 ar
    19    9   10 ar
    20   10   11 ar
    21   10   34 1
    22   11   12 ar
    23   11   35 1
    24   12   13 ar
    25   12   36 1
    26   13   37 1
    27   14   15 1
    28   14   38 1
    29   15   16 2
    30   15   17 2
    31   15   18 1
    32   18   23 ar
    33   18   19 ar
    34   19   20 ar
    35   19   26 1
    36   20   21 ar
    37   20   39 1
    38   21   22 ar
    39   21   25 1
    40   22   23 ar
    41   22   40 1
    42   23   24 1
@<TRIPOS>MOLECULE
CHEMBL396029__1
   40    42     0     0     0
SMALL
USER_CHARGES

@<TRIPOS>ATOM
      1 C1         -0.0187    1.5258    0.0104 C.3       1 <0>        -0.1739
      2 C2          0.0021   -0.0041    0.0020 C.3       1 <0>         0.1513
      3 C3          0.7182   -0.4975   -1.2568 C.3       1 <0>        -0.0503
      4 C4          0.6316   -2.0003   -1.3275 C.2       1 <0>        -0.1715
      5 C5          1.5500   -2.8746   -0.8869 C.2       1 <0>         0.0576
      6 N1          1.1261   -4.1544   -1.1213 N.pl3     1 <0>        -0.5935
      7 H1          1.6206   -4.9563   -0.8902 H         1 <0>         0.4152
      8 C6         -0.1068   -4.1343   -1.7340 C.ar      1 <0>         0.0995
      9 C7         -0.4735   -2.7842   -1.8844 C.ar      1 <0>        -0.0995
     10 C8         -1.6938   -2.4558   -2.4772 C.ar      1 <0>        -0.0733
     11 C9         -2.5289   -3.4491   -2.9059 C.ar      1 <0>        -0.1445
     12 C10        -2.1736   -4.7824   -2.7562 C.ar      1 <0>        -0.0960
     13 C11        -0.9697   -5.1287   -2.1822 C.ar      1 <0>        -0.1299
     14 N2          0.7106   -0.4894    1.1889 N.pl3     1 <0>        -1.0989
     15 S1         -0.1388   -0.9023    2.5492 S.o2      1 <0>         2.6831
     16 O1          0.8143   -1.3537    3.5016 O.2       1 <0>        -0.9385
     17 O2         -1.0297    0.1727    2.8136 O.2       1 <0>        -0.9308
     18 C12        -1.1374   -2.2943    2.1373 C.ar      1 <0>        -0.6704
     19 C13        -2.4143   -2.1064    1.6393 C.ar      1 <0>         0.0739
     20 C14        -3.1984   -3.1993    1.3160 C.ar      1 <0>        -0.1170
     21 C15        -2.7054   -4.4800    1.4901 C.ar      1 <0>         0.0439
     22 C16        -1.4282   -4.6679    1.9872 C.ar      1 <0>        -0.1223
     23 C17        -0.6425   -3.5749    2.3066 C.ar      1 <0>         0.0789
     24 Cl1         0.9625   -3.8106    2.9248 Cl        1 <0>        -0.0034
     25 Cl2        -3.6898   -5.8515    1.0854 Cl        1 <0>        -0.0276
     26 Cl3        -3.0330   -0.4991    1.4208 Cl        1 <0>         0.0025
     27 H2          1.0039    1.9031    0.0027 H         1 <0>         0.0648
     28 H3         -0.5459    1.8868   -0.8726 H         1 <0>         0.0695
     29 H4         -0.5289    1.8773    0.9072 H         1 <0>         0.0728
     30 H5         -1.0205   -0.3814    0.0098 H         1 <0>         0.0841
     31 H6          0.2444   -0.0644   -2.1377 H         1 <0>         0.0868
     32 H7          1.7648   -0.1951   -1.2215 H         1 <0>         0.0803
     33 H8          2.4852   -2.6075   -0.4173 H         1 <0>         0.1659
     34 H9         -1.9772   -1.4205   -2.5964 H         1 <0>         0.1192
     35 H10        -3.4729   -3.1945   -3.3646 H         1 <0>         0.1207
     36 H11        -2.8444   -5.5561   -3.0994 H         1 <0>         0.1224
     37 H12        -0.7029   -6.1691   -2.0691 H         1 <0>         0.1165
     38 H13         1.6773   -0.5688    1.1779 H         1 <0>         0.4188
     39 H14        -4.1955   -3.0526    0.9279 H         1 <0>         0.1586
     40 H15        -1.0433   -5.6678    2.1232 H         1 <0>         0.1552
@<TRIPOS>BOND
     1    1    2 1
     2    1   27 1
     3    1   28 1
     4    1   29 1
     5    2    3 1
     6    2   14 1
     7    2   30 1
     8    3    4 1
     9    3   31 1
    10    3   32 1
    11    4    9 1
    12    4    5 2
    13    5    6 1
    14    5   33 1
    15    6    7 1
    16    6    8 1
    17    8   13 ar
    18    8    9 ar
    19    9   10 ar
    20   10   11 ar
    21   10   34 1
    22   11   12 ar
    23   11   35 1
    24   12   13 ar
    25   12   36 1
    26   13   37 1
    27   14   15 1
    28   14   38 1
    29   15   16 2
    30   15   17 2
    31   15   18 1
    32   18   23 ar
    33   18   19 ar
    34   19   20 ar
    35   19   26 1
    36   20   21 ar
    37   20   39 1
    38   21   22 ar
    39   21   25 1
    40   22   23 ar
    41   22   40 1
    42   23   24 1
@<TRIPOS>MOLECULE
CHEMBL1098089
   50    52     0     0     0
SMALL
USER_CHARGES

@<TRIPOS>ATOM
      1 C1         -0.4274    1.6214   -0.1081 C.3       1 <0>        -0.1523
      2 C2         -0.2837    0.0982   -0.1210 C.3       1 <0>        -0.1229
      3 C3         -1.6645   -0.5454    0.0209 C.3       1 <0>        -0.0994
      4 C4         -1.5230   -2.0457    0.0082 C.2       1 <0>         0.2022
      5 C5         -1.3982   -2.7112    1.1701 C.2       1 <0>        -0.2330
      6 C6         -1.2635   -4.2070    1.2060 C.3       1 <0>         0.0857
      7 C7         -0.9001   -4.7418   -0.1500 C.2       1 <0>        -0.1441
      8 C8         -1.0434   -3.9979   -1.2576 C.2       1 <0>         0.2090
      9 N1         -1.5286   -2.7147   -1.1843 N.pl3     1 <0>        -0.6302
     10 C9         -0.6738   -4.5794   -2.5978 C.3       1 <0>        -0.1336
     11 C10        -0.3891   -6.0748   -0.2630 C.1       1 <0>         0.2627
     12 N2          0.0163   -7.1322   -0.3527 N.1       1 <0>        -0.4189
     13 C11        -2.5723   -4.8125    1.6437 C.ar      1 <0>        -0.0202
     14 C12        -3.7144   -4.6138    0.9209 C.ar      1 <0>        -0.1532
     15 C13        -4.9130   -5.1832    1.3443 C.ar      1 <0>         0.1338
     16 N3         -4.9836   -5.9145    2.4301 N.ar      1 <0>        -0.4724
     17 C14        -3.9037   -6.1476    3.1823 C.ar      1 <0>         0.1289
     18 C15        -2.6508   -5.6033    2.8052 C.ar      1 <0>        -0.0907
     19 C16        -1.5182   -5.8560    3.5960 C.ar      1 <0>        -0.1034
     20 C17        -1.6355   -6.6257    4.7127 C.ar      1 <0>        -0.1118
     21 C18        -2.8654   -7.1670    5.0822 C.ar      1 <0>        -0.1007
     22 C19        -3.9856   -6.9323    4.3461 C.ar      1 <0>        -0.0924
     23 C20        -1.3933   -1.9873    2.3843 C.2       1 <0>         0.5357
     24 O1         -0.3403   -1.7470    2.9451 O.2       1 <0>        -0.4952
     25 O2         -2.5562   -1.5627    2.9215 O.3       1 <0>        -0.3451
     26 C21        -2.4766   -0.8369    4.1499 C.3       1 <0>         0.0578
     27 C22        -3.8842   -0.4418    4.6009 C.3       1 <0>        -0.1519
     28 H1          0.5563    2.0800   -0.2092 H         1 <0>         0.0611
     29 H2         -1.0608    1.9337   -0.9384 H         1 <0>         0.0573
     30 H3         -0.8799    1.9358    0.8324 H         1 <0>         0.0565
     31 H4          0.1688   -0.2161   -1.0615 H         1 <0>         0.0682
     32 H5          0.3498   -0.2140    0.7092 H         1 <0>         0.0729
     33 H6         -2.1170   -0.2311    0.9614 H         1 <0>         0.0950
     34 H7         -2.2979   -0.2332   -0.8094 H         1 <0>         0.0912
     35 H8         -0.4862   -4.4802    1.9196 H         1 <0>         0.0962
     36 H9         -1.8726   -2.2802   -1.9804 H         1 <0>         0.4243
     37 H10        -1.5438   -5.0711   -3.0330 H         1 <0>         0.0946
     38 H11        -0.3384   -3.7813   -3.2601 H         1 <0>         0.0867
     39 H12         0.1283   -5.3064   -2.4698 H         1 <0>         0.0895
     40 H13        -3.6880   -4.0154    0.0222 H         1 <0>         0.1312
     41 H14        -5.8079   -5.0175    0.7628 H         1 <0>         0.1590
     42 H15        -0.5596   -5.4423    3.3197 H         1 <0>         0.1278
     43 H16        -0.7638   -6.8198    5.3201 H         1 <0>         0.1283
     44 H17        -2.9325   -7.7745    5.9727 H         1 <0>         0.1311
     45 H18        -4.9310   -7.3591    4.6467 H         1 <0>         0.1363
     46 H19        -2.0131   -1.4629    4.9124 H         1 <0>         0.0674
     47 H20        -1.8766    0.0612    4.0031 H         1 <0>         0.0680
     48 H21        -3.8235    0.1118    5.5379 H         1 <0>         0.0801
     49 H22        -4.3478    0.1842    3.8385 H         1 <0>         0.0666
     50 H23        -4.4842   -1.3399    4.7477 H         1 <0>         0.0664
@<TRIPOS>BOND
     1    1    2 1
     2    1   28 1
     3    1   29 1
     4    1   30 1
     5    2    3 1
     6    2   31 1
     7    2   32 1
     8    3    4 1
     9    3   33 1
    10    3   34 1
    11    4    9 1
    12    4    5 2
    13    5    6 1
    14    5   23 1
    15    6    7 1
    16    6   13 1
    17    6   35 1
    18    7    8 2
    19    7   11 1
    20    8    9 1
    21    8   10 1
    22    9   36 1
    23   10   37 1
    24   10   38 1
    25   10   39 1
    26   11   12 3
    27   13   18 ar
    28   13   14 ar
    29   14   15 ar
    30   14   40 1
    31   15   16 ar
    32   15   41 1
    33   16   17 ar
    34   17   22 ar
    35   17   18 ar
    36   18   19 ar
    37   19   20 ar
    38   19   42 1
    39   20   21 ar
    40   20   43 1
    41   21   22 ar
    42   21   44 1
    43   22   45 1
    44   23   24 2
    45   23   25 1
    46   25   26 1
    47   26   27 1
    48   26   46 1
    49   26   47 1
    50   27   48 1
    51   27   49 1
    52   27   50 1
@<TRIPOS>MOLECULE
CHEMBL1098089__1
   50    52     0     0     0
SMALL
USER_CHARGES

@<TRIPOS>ATOM
      1 C1         -0.3926    1.6134   -0.1054 C.3       1 <0>        -0.1526
      2 C2         -0.2592    0.0893   -0.1160 C.3       1 <0>        -0.1239
      3 C3         -1.6451   -0.5449    0.0175 C.3       1 <0>        -0.0996
      4 C4         -1.5137   -2.0462    0.0070 C.2       1 <0>         0.1998
      5 C5         -1.3982   -2.7112    1.1701 C.2       1 <0>        -0.2307
      6 C6         -1.2561   -4.2063    1.2073 C.3       1 <0>         0.0861
      7 C7         -1.6518   -4.8119   -0.1093 C.2       1 <0>        -0.1467
      8 C8         -1.7570   -4.0660   -1.2198 C.2       1 <0>         0.2098
      9 N1         -1.5189   -2.7164   -1.1848 N.pl3     1 <0>        -0.6275
     10 C9         -2.1480   -4.7186   -2.5207 C.3       1 <0>        -0.1322
     11 C10        -1.9223   -6.2163   -0.1809 C.1       1 <0>         0.2630
     12 N2         -2.1369   -7.3304   -0.2377 N.1       1 <0>        -0.4193
     13 C11         0.1780   -4.5610    1.5054 C.ar      1 <0>        -0.0146
     14 C12         1.1876   -4.1571    0.6784 C.ar      1 <0>        -0.1536
     15 C13         2.5058   -4.4965    0.9736 C.ar      1 <0>         0.1337
     16 N3          2.8155   -5.2018    2.0345 N.ar      1 <0>        -0.4730
     17 C14         1.8759   -5.6281    2.8840 C.ar      1 <0>         0.1292
     18 C15         0.5149   -5.3125    2.6465 C.ar      1 <0>        -0.0878
     19 C16        -0.4678   -5.7581    3.5453 C.ar      1 <0>        -0.1032
     20 C17        -0.1013   -6.4832    4.6376 C.ar      1 <0>        -0.1125
     21 C18         1.2371   -6.7897    4.8764 C.ar      1 <0>        -0.1019
     22 C19         2.2139   -6.3846    4.0199 C.ar      1 <0>        -0.0915
     23 C20        -1.4104   -1.9875    2.3844 C.2       1 <0>         0.5312
     24 O1         -0.3643   -1.7347    2.9525 O.2       1 <0>        -0.4844
     25 O2         -2.5821   -1.5770    2.9136 O.3       1 <0>        -0.3513
     26 C21        -2.5197   -0.8506    4.1426 C.3       1 <0>         0.0574
     27 C22        -3.9351   -0.4726    4.5839 C.3       1 <0>        -0.1525
     28 H1          0.5947    2.0652   -0.2005 H         1 <0>         0.0612
     29 H2         -1.0186    1.9292   -0.9399 H         1 <0>         0.0572
     30 H3         -0.8490    1.9316    0.8319 H         1 <0>         0.0563
     31 H4          0.1972   -0.2289   -1.0533 H         1 <0>         0.0674
     32 H5          0.3668   -0.2265    0.7185 H         1 <0>         0.0743
     33 H6         -2.1015   -0.2267    0.9548 H         1 <0>         0.0950
     34 H7         -2.2712   -0.2292   -0.8171 H         1 <0>         0.0923
     35 H8         -1.8952   -4.6080    1.9936 H         1 <0>         0.0944
     36 H9         -1.3497   -2.2357   -2.0101 H         1 <0>         0.4230
     37 H10        -3.2330   -4.7022   -2.6238 H         1 <0>         0.0959
     38 H11        -1.6959   -4.1749   -3.3502 H         1 <0>         0.0856
     39 H12        -1.7978   -5.7508   -2.5290 H         1 <0>         0.0888
     40 H13         0.9637   -3.5754   -0.2037 H         1 <0>         0.1290
     41 H14         3.2936   -4.1703    0.3108 H         1 <0>         0.1582
     42 H15        -1.5082   -5.5267    3.3712 H         1 <0>         0.1260
     43 H16        -0.8577   -6.8252    5.3285 H         1 <0>         0.1278
     44 H17         1.5023   -7.3664    5.7502 H         1 <0>         0.1308
     45 H18         3.2463   -6.6310    4.2196 H         1 <0>         0.1360
     46 H19        -2.0540   -1.4712    4.9082 H         1 <0>         0.0681
     47 H20        -1.9296    0.0547    4.0000 H         1 <0>         0.0677
     48 H21        -3.8876    0.0815    5.5213 H         1 <0>         0.0799
     49 H22        -4.4008    0.1480    3.8183 H         1 <0>         0.0664
     50 H23        -4.5252   -1.3778    4.7264 H         1 <0>         0.0672
@<TRIPOS>BOND
     1    1    2 1
     2    1   28 1
     3    1   29 1
     4    1   30 1
     5    2    3 1
     6    2   31 1
     7    2   32 1
     8    3    4 1
     9    3   33 1
    10    3   34 1
    11    4    9 1
    12    4    5 2
    13    5    6 1
    14    5   23 1
    15    6    7 1
    16    6   13 1
    17    6   35 1
    18    7    8 2
    19    7   11 1
    20    8    9 1
    21    8   10 1
    22    9   36 1
    23   10   37 1
    24   10   38 1
    25   10   39 1
    26   11   12 3
    27   13   18 ar
    28   13   14 ar
    29   14   15 ar
    30   14   40 1
    31   15   16 ar
    32   15   41 1
    33   16   17 ar
    34   17   22 ar
    35   17   18 ar
    36   18   19 ar
    37   19   20 ar
    38   19   42 1
    39   20   21 ar
    40   20   43 1
    41   21   22 ar
    42   21   44 1
    43   22   45 1
    44   23   24 2
    45   23   25 1
    46   25   26 1
    47   26   27 1
    48   26   46 1
    49   26   47 1
    50   27   48 1
    51   27   49 1
    52   27   50 1
@<TRIPOS>MOLECULE
CHEMBL231296
   54    57     0     0     0
SMALL
USER_CHARGES

@<TRIPOS>ATOM
      1 C1         -0.5673    0.4892   -1.6713 C.3       1 <0>         0.0266
      2 O1         -0.4381   -0.8952   -1.3415 O.3       1 <0>        -0.3146
      3 C2          0.3586   -1.6489   -2.1442 C.ar      1 <0>         0.1304
      4 C3          1.0073   -1.0666   -3.2236 C.ar      1 <0>        -0.2065
      5 C4          1.8169   -1.8346   -4.0376 C.ar      1 <0>        -0.0821
      6 C5          1.9811   -3.1828   -3.7775 C.ar      1 <0>        -0.1548
      7 C6          1.3354   -3.7655   -2.7029 C.ar      1 <0>        -0.0773
      8 C7          0.5291   -3.0003   -1.8823 C.ar      1 <0>        -0.1104
      9 C8         -0.1694   -3.6348   -0.7073 C.3       1 <0>        -0.0369
     10 C9          0.8717   -4.2197    0.2498 C.3       1 <0>        -0.1277
     11 C10         0.1597   -4.8331    1.4596 C.3       1 <0>         0.1374
     12 N1         -0.8334   -5.8046    0.9814 N.pl3     1 <0>        -0.6564
     13 C11        -1.8260   -5.3699   -0.0109 C.3       1 <0>         0.1337
     14 C12        -1.0917   -4.7505   -1.2042 C.3       1 <0>        -0.1294
     15 C13        -0.8335   -7.0927    1.4518 C.2       1 <0>         0.4585
     16 C14        -1.2576   -7.3626    2.7233 C.2       1 <0>        -0.2685
     17 C15        -1.2468   -8.6905    3.1781 C.2       1 <0>         0.5599
     18 O2         -1.6208   -8.9548    4.3080 O.2       1 <0>        -0.5107
     19 N2         -0.8209   -9.6714    2.3582 N.am      1 <0>        -0.6591
     20 H1         -0.8130  -10.5897    2.6706 H         1 <0>         0.4324
     21 C16        -0.4070   -9.3882    1.1098 C.2       1 <0>         0.7053
     22 O3         -0.0267  -10.2883    0.3863 O.2       1 <0>        -0.5416
     23 N3         -0.4129   -8.1242    0.6479 N.am      1 <0>        -0.6466
     24 H2         -0.1149   -7.9400   -0.2567 H         1 <0>         0.4301
     25 C17        -1.7293   -6.2501    3.6238 C.3       1 <0>         0.0007
     26 C18        -3.2302   -6.1408    3.5431 C.ar      1 <0>        -0.0759
     27 C19        -3.8114   -5.2205    2.6909 C.ar      1 <0>        -0.1166
     28 C20        -5.1881   -5.1203    2.6168 C.ar      1 <0>        -0.1238
     29 C21        -5.9836   -5.9406    3.3946 C.ar      1 <0>        -0.1238
     30 C22        -5.4025   -6.8615    4.2462 C.ar      1 <0>        -0.1213
     31 C23        -4.0258   -6.9647    4.3170 C.ar      1 <0>        -0.1073
     32 H3          0.4136    0.9635   -1.6389 H         1 <0>         0.0555
     33 H4         -0.9851    0.5866   -2.6733 H         1 <0>         0.0554
     34 H5         -1.2289    0.9735   -0.9531 H         1 <0>         0.1013
     35 H6          0.8792   -0.0137   -3.4274 H         1 <0>         0.1275
     36 H7          2.3218   -1.3819   -4.8782 H         1 <0>         0.1241
     37 H8          2.6145   -3.7817   -4.4152 H         1 <0>         0.1233
     38 H9          1.4650   -4.8187   -2.5020 H         1 <0>         0.1258
     39 H10        -0.7594   -2.8814   -0.1855 H         1 <0>         0.0900
     40 H11         1.4457   -4.9908   -0.2640 H         1 <0>         0.0677
     41 H12         1.5426   -3.4287    0.5850 H         1 <0>         0.0782
     42 H13         0.8877   -5.3374    2.0950 H         1 <0>         0.0806
     43 H14        -0.3408   -4.0477    2.0260 H         1 <0>         0.0725
     44 H15        -2.4082   -6.2284   -0.3456 H         1 <0>         0.0761
     45 H16        -2.4884   -4.6283    0.4356 H         1 <0>         0.0751
     46 H17        -1.8183   -4.3373   -1.9038 H         1 <0>         0.0772
     47 H18        -0.4993   -5.5166   -1.7043 H         1 <0>         0.0668
     48 H19        -1.4354   -6.4649    4.6512 H         1 <0>         0.0872
     49 H20        -1.2790   -5.3097    3.3061 H         1 <0>         0.0854
     50 H21        -3.1898   -4.5796    2.0832 H         1 <0>         0.1208
     51 H22        -5.6421   -4.4008    1.9516 H         1 <0>         0.1187
     52 H23        -7.0592   -5.8618    3.3373 H         1 <0>         0.1182
     53 H24        -6.0241   -7.5022    4.8541 H         1 <0>         0.1194
     54 H25        -3.5718   -7.6868    4.9795 H         1 <0>         0.1296
@<TRIPOS>BOND
     1    1    2 1
     2    1   32 1
     3    1   33 1
     4    1   34 1
     5    2    3 1
     6    3    8 ar
     7    3    4 ar
     8    4    5 ar
     9    4   35 1
    10    5    6 ar
    11    5   36 1
    12    6    7 ar
    13    6   37 1
    14    7    8 ar
    15    7   38 1
    16    8    9 1
    17    9   14 1
    18    9   10 1
    19    9   39 1
    20   10   11 1
    21   10   40 1
    22   10   41 1
    23   11   12 1
    24   11   42 1
    25   11   43 1
    26   12   13 1
    27   12   15 1
    28   13   14 1
    29   13   44 1
    30   13   45 1
    31   14   46 1
    32   14   47 1
    33   15   23 1
    34   15   16 2
    35   16   17 1
    36   16   25 1
    37   17   18 2
    38   17   19 am
    39   19   20 1
    40   19   21 am
    41   21   22 2
    42   21   23 am
    43   23   24 1
    44   25   26 1
    45   25   48 1
    46   25   49 1
    47   26   31 ar
    48   26   27 ar
    49   27   28 ar
    50   27   50 1
    51   28   29 ar
    52   28   51 1
    53   29   30 ar
    54   29   52 1
    55   30   31 ar
    56   30   53 1
    57   31   54 1
@<TRIPOS>MOLECULE
CHEMBL393946
   59    63     0     0     0
SMALL
USER_CHARGES

@<TRIPOS>ATOM
      1 C1         -0.3073    1.3407   -0.6050 C.3       1 <0>        -0.1224
      2 C2         -0.2027   -0.1504   -0.3732 C.2       1 <0>        -0.0938
      3 C3         -0.3674   -0.9295   -1.4112 C.2       1 <0>        -0.1474
      4 C4         -0.2088   -2.4195   -1.3585 C.3       1 <0>         0.1436
      5 N1          0.6032   -2.7978   -0.1916 N.3       1 <0>        -0.6661
      6 C5          0.0615   -2.2203    1.0265 C.3       1 <0>         0.1187
      7 C6          0.1014   -0.6847    0.9728 C.3       1 <0>         0.0086
      8 C7         -0.6843   -0.2139    2.1474 C.2       1 <0>        -0.1032
      9 C8         -0.3328   -0.7997    3.3619 C.2       1 <0>        -0.0133
     10 C9          0.6620   -1.8793    3.3648 C.2       1 <0>        -0.1184
     11 C10         0.8581   -2.6048    2.2525 C.2       1 <0>        -0.1225
     12 C11        -0.9708   -0.2850    4.5833 C.ar      1 <0>        -0.1177
     13 C12        -1.7652    0.8735    4.4876 C.ar      1 <0>         0.1255
     14 C13        -2.3585    1.4066    5.6171 C.ar      1 <0>        -0.1278
     15 C14        -2.1870    0.7959    6.8458 C.ar      1 <0>        -0.0884
     16 C15        -1.4248   -0.3561    6.9517 C.ar      1 <0>         0.0591
     17 C16        -0.8190   -0.9040    5.8246 C.ar      1 <0>         0.1244
     18 O1         -0.1007   -2.0499    5.9580 O.3       1 <0>        -0.3203
     19 C17        -0.8278   -3.2795    5.9200 C.3       1 <0>         0.0369
     20 O2         -1.2665   -0.9576    8.1626 O.3       1 <0>        -0.4810
     21 O3         -1.9639    1.4516    3.2732 O.3       1 <0>        -0.2264
     22 C18        -1.7720    0.6592    2.1820 C.2       1 <0>         0.1022
     23 C19        -2.7180    0.6816    1.2105 C.2       1 <0>        -0.1220
     24 C20        -3.7365    1.7393    1.2017 C.ar      1 <0>        -0.0329
     25 C21        -3.6274    2.8285    2.0755 C.ar      1 <0>        -0.1151
     26 C22        -4.5864    3.8186    2.0631 C.ar      1 <0>        -0.1055
     27 C23        -5.6573    3.7409    1.1903 C.ar      1 <0>        -0.1442
     28 C24        -5.7759    2.6650    0.3197 C.ar      1 <0>         0.1023
     29 C25        -4.8177    1.6668    0.3165 C.ar      1 <0>        -0.1348
     30 O4         -6.8310    2.5959   -0.5341 O.3       1 <0>        -0.4999
     31 C26         0.5099   -2.8834   -2.6299 C.3       1 <0>        -0.1350
     32 C27        -1.5798   -3.0854   -1.2935 C.3       1 <0>        -0.1755
     33 H1          0.6724    1.7364   -0.8728 H         1 <0>         0.0674
     34 H2         -1.0109    1.5340   -1.4147 H         1 <0>         0.0663
     35 H3         -0.6587    1.8262    0.3054 H         1 <0>         0.0660
     36 H4         -0.6301   -0.4749   -2.3514 H         1 <0>         0.1151
     37 H5          0.6942   -3.8005   -0.1233 H         1 <0>         0.3503
     38 H6         -0.9639   -2.5392    1.1876 H         1 <0>         0.0521
     39 H7          1.1605   -0.4100    1.1846 H         1 <0>         0.0964
     40 H8          1.2573   -2.0844    4.2419 H         1 <0>         0.1403
     41 H9          1.5497   -3.4255    2.2246 H         1 <0>         0.1349
     42 H10        -2.9577    2.3024    5.5426 H         1 <0>         0.1467
     43 H11        -2.6495    1.2190    7.7245 H         1 <0>         0.1475
     44 H12        -1.6133   -3.2607    6.6755 H         1 <0>         0.0446
     45 H13        -1.2749   -3.4068    4.9341 H         1 <0>         0.0481
     46 H14        -0.1498   -4.1089    6.1213 H         1 <0>         0.1002
     47 H15        -1.9405   -1.6213    8.3632 H         1 <0>         0.3855
     48 H16        -2.7223   -0.0786    0.4433 H         1 <0>         0.1421
     49 H17        -2.7931    2.8924    2.7584 H         1 <0>         0.1493
     50 H18        -4.5018    4.6580    2.7374 H         1 <0>         0.1276
     51 H19        -6.4048    4.5204    1.1862 H         1 <0>         0.1271
     52 H20        -4.9064    0.8326   -0.3637 H         1 <0>         0.1280
     53 H21        -6.6726    3.0173   -1.3899 H         1 <0>         0.3903
     54 H22         1.4896   -2.4089   -2.6871 H         1 <0>         0.0659
     55 H23         0.6316   -3.9662   -2.6040 H         1 <0>         0.0569
     56 H24        -0.0802   -2.6048   -3.5030 H         1 <0>         0.0622
     57 H25        -2.1567   -2.8162   -2.1782 H         1 <0>         0.0674
     58 H26        -1.4566   -4.1677   -1.2554 H         1 <0>         0.0593
     59 H27        -2.1056   -2.7479   -0.4003 H         1 <0>         0.0547
@<TRIPOS>BOND
     1    1    2 1
     2    1   33 1
     3    1   34 1
     4    1   35 1
     5    2    7 1
     6    2    3 2
     7    3    4 1
     8    3   36 1
     9    4    5 1
    10    4   31 1
    11    4   32 1
    12    5    6 1
    13    5   37 1
    14    6   11 1
    15    6    7 1
    16    6   38 1
    17    7    8 1
    18    7   39 1
    19    8   22 1
    20    8    9 2
    21    9   10 1
    22    9   12 1
    23   10   11 2
    24   10   40 1
    25   11   41 1
    26   12   17 ar
    27   12   13 ar
    28   13   14 ar
    29   13   21 1
    30   14   15 ar
    31   14   42 1
    32   15   16 ar
    33   15   43 1
    34   16   17 ar
    35   16   20 1
    36   17   18 1
    37   18   19 1
    38   19   44 1
    39   19   45 1
    40   19   46 1
    41   20   47 1
    42   21   22 1
    43   22   23 2
    44   23   24 1
    45   23   48 1
    46   24   29 ar
    47   24   25 ar
    48   25   26 ar
    49   25   49 1
    50   26   27 ar
    51   26   50 1
    52   27   28 ar
    53   27   51 1
    54   28   29 ar
    55   28   30 1
    56   29   52 1
    57   30   53 1
    58   31   54 1
    59   31   55 1
    60   31   56 1
    61   32   57 1
    62   32   58 1
    63   32   59 1
@<TRIPOS>MOLECULE
CHEMBL393946__1
   60    64     0     0     0
SMALL
USER_CHARGES

@<TRIPOS>ATOM
      1 C1         -0.3389    1.3244   -0.6142 C.3       1 <0>        -0.1331
      2 C2         -0.2290   -0.1663   -0.3830 C.2       1 <0>        -0.0705
      3 C3         -0.3985   -0.9476   -1.4193 C.2       1 <0>        -0.1902
      4 C4         -0.2320   -2.4359   -1.3662 C.3       1 <0>         0.1009
      5 N1          0.5955   -2.8148   -0.2119 N.4       1 <0>        -0.4883
      6 C5          0.0422   -2.2408    1.0034 C.3       1 <0>         0.0542
      7 C6          0.0855   -0.7055    0.9595 C.3       1 <0>        -0.0102
      8 C7         -0.6893   -0.2340    2.1413 C.2       1 <0>        -0.0977
      9 C8         -0.3418   -0.8325    3.3507 C.2       1 <0>        -0.0127
     10 C9          0.6445   -1.9200    3.3456 C.2       1 <0>        -0.0370
     11 C10         0.8355   -2.6378    2.2289 C.2       1 <0>        -0.2107
     12 C11        -0.9746   -0.3244    4.5776 C.ar      1 <0>        -0.1346
     13 C12        -1.7454    0.8510    4.4969 C.ar      1 <0>         0.1320
     14 C13        -2.3306    1.3800    5.6323 C.ar      1 <0>        -0.1247
     15 C14        -2.1751    0.7473    6.8522 C.ar      1 <0>        -0.0751
     16 C15        -1.4370   -0.4217    6.9433 C.ar      1 <0>         0.0657
     17 C16        -0.8397   -0.9655    5.8096 C.ar      1 <0>         0.1273
     18 O1         -0.1474   -2.1293    5.9262 O.3       1 <0>        -0.3238
     19 C17        -0.9007   -3.3418    5.8597 C.3       1 <0>         0.0340
     20 O2         -1.2953   -1.0452    8.1450 O.3       1 <0>        -0.4782
     21 O3         -1.9282    1.4472    3.2882 O.3       1 <0>        -0.2205
     22 C18        -1.7627    0.6559    2.1910 C.2       1 <0>         0.0779
     23 C19        -2.7217    0.6975    1.2333 C.2       1 <0>        -0.0941
     24 C20        -3.7216    1.7728    1.2418 C.ar      1 <0>        -0.0531
     25 C21        -3.5817    2.8569    2.1175 C.ar      1 <0>        -0.1075
     26 C22        -4.5234    3.8636    2.1214 C.ar      1 <0>        -0.1052
     27 C23        -5.6072    3.8075    1.2630 C.ar      1 <0>        -0.1314
     28 C24        -5.7563    2.7369    0.3906 C.ar      1 <0>         0.1046
     29 C25        -4.8158    1.7222    0.3711 C.ar      1 <0>        -0.1296
     30 O4         -6.8239    2.6890   -0.4490 O.3       1 <0>        -0.4979
     31 C26         0.4758   -2.8953   -2.6463 C.3       1 <0>        -0.1737
     32 C27        -1.5978   -3.1104   -1.2911 C.3       1 <0>        -0.1711
     33 H1          0.6379    1.7225   -0.8888 H         1 <0>         0.0839
     34 H2         -1.0486    1.5159   -1.4191 H         1 <0>         0.0824
     35 H3         -0.6853    1.8092    0.2985 H         1 <0>         0.0807
     36 H4         -0.6708   -0.4956   -2.3584 H         1 <0>         0.1546
     37 H5          0.6239   -3.8235   -0.1371 H         1 <0>         0.4325
     38 H6         -0.9831   -2.5610    1.1588 H         1 <0>         0.1485
     39 H7          1.1470   -0.4340    1.1628 H         1 <0>         0.1191
     40 H8          1.2356   -2.1370    4.2227 H         1 <0>         0.1606
     41 H9          1.5218   -3.4627    2.1952 H         1 <0>         0.1563
     42 H10        -2.9108    2.2894    5.5705 H         1 <0>         0.1519
     43 H11        -2.6320    1.1657    7.7360 H         1 <0>         0.1538
     44 H12        -0.2419   -4.1896    6.0477 H         1 <0>         0.1039
     45 H13        -1.6897   -3.3210    6.6115 H         1 <0>         0.0508
     46 H14        -1.3451   -3.4396    4.8692 H         1 <0>         0.0453
     47 H15        -1.9834   -1.6980    8.3330 H         1 <0>         0.3904
     48 H16        -2.7501   -0.0603    0.4643 H         1 <0>         0.1400
     49 H17        -2.7373    2.9039    2.7892 H         1 <0>         0.1498
     50 H18        -4.4150    4.6990    2.7971 H         1 <0>         0.1319
     51 H19        -6.3410    4.5998    1.2716 H         1 <0>         0.1323
     52 H20        -4.9282    0.8920   -0.3104 H         1 <0>         0.1283
     53 H21        -6.6698    3.1106   -1.3055 H         1 <0>         0.3936
     54 H22         1.4519   -2.4150   -2.7141 H         1 <0>         0.0839
     55 H23         0.6042   -3.9774   -2.6222 H         1 <0>         0.0852
     56 H24        -0.1255   -2.6200   -3.5128 H         1 <0>         0.1095
     57 H25        -2.1826   -2.8459   -2.1722 H         1 <0>         0.1104
     58 H26        -1.4674   -4.1919   -1.2529 H         1 <0>         0.0859
     59 H27        -2.1196   -2.7754   -0.3947 H         1 <0>         0.0783
     60 H28         1.5392   -2.4756   -0.3546 H         1 <0>         0.4302
@<TRIPOS>BOND
     1    1    2 1
     2    1   33 1
     3    1   34 1
     4    1   35 1
     5    2    7 1
     6    2    3 2
     7    3    4 1
     8    3   36 1
     9    4    5 1
    10    4   31 1
    11    4   32 1
    12    5    6 1
    13    5   37 1
    14    5   60 1
    15    6   11 1
    16    6    7 1
    17    6   38 1
    18    7    8 1
    19    7   39 1
    20    8   22 1
    21    8    9 2
    22    9   10 1
    23    9   12 1
    24   10   11 2
    25   10   40 1
    26   11   41 1
    27   12   17 ar
    28   12   13 ar
    29   13   14 ar
    30   13   21 1
    31   14   15 ar
    32   14   42 1
    33   15   16 ar
    34   15   43 1
    35   16   17 ar
    36   16   20 1
    37   17   18 1
    38   18   19 1
    39   19   44 1
    40   19   45 1
    41   19   46 1
    42   20   47 1
    43   21   22 1
    44   22   23 2
    45   23   24 1
    46   23   48 1
    47   24   29 ar
    48   24   25 ar
    49   25   26 ar
    50   25   49 1
    51   26   27 ar
    52   26   50 1
    53   27   28 ar
    54   27   51 1
    55   28   29 ar
    56   28   30 1
    57   29   52 1
    58   30   53 1
    59   31   54 1
    60   31   55 1
    61   31   56 1
    62   32   57 1
    63   32   58 1
    64   32   59 1
@<TRIPOS>MOLECULE
CHEMBL393946__2
   59    63     0     0     0
SMALL
USER_CHARGES

@<TRIPOS>ATOM
      1 C1          0.8176    2.0221   -1.0173 C.3       1 <0>        -0.1299
      2 C2          0.2659    0.6239   -0.9084 C.2       1 <0>        -0.1085
      3 C3          0.3662   -0.1626   -1.9366 C.2       1 <0>        -0.1766
      4 C4         -0.1426   -1.5757   -1.9383 C.3       1 <0>         0.1388
      5 N1         -1.1171   -1.7629   -0.8563 N.3       1 <0>        -0.6586
      6 C5         -0.5582   -1.3055    0.4245 C.3       1 <0>         0.1177
      7 C6         -0.3686    0.2038    0.3859 C.3       1 <0>        -0.0289
      8 C7          0.4723    0.6683    1.5426 C.2       1 <0>        -0.1157
      9 C8          1.4675   -0.1344    2.0271 C.2       1 <0>         0.0108
     10 C9          1.6869   -1.4637    1.4460 C.2       1 <0>        -0.1515
     11 C10         0.7430   -2.0090    0.6873 C.2       1 <0>        -0.1117
     12 C11         2.2983    0.3701    3.1357 C.ar      1 <0>        -0.1248
     13 C12         2.0128    1.6363    3.6692 C.ar      1 <0>         0.1268
     14 C13         2.7860    2.1259    4.7105 C.ar      1 <0>        -0.1262
     15 C14         3.8275    1.3722    5.2192 C.ar      1 <0>        -0.0861
     16 C15         4.1129    0.1196    4.6975 C.ar      1 <0>         0.0629
     17 C16         3.3491   -0.3890    3.6537 C.ar      1 <0>         0.1250
     18 O1          3.6240   -1.6170    3.1402 O.3       1 <0>        -0.3177
     19 C17         3.0715   -2.7443    3.8230 C.3       1 <0>         0.0304
     20 O2          5.1409   -0.6116    5.2074 O.3       1 <0>        -0.4805
     21 O3          0.9904    2.3715    3.1747 O.3       1 <0>        -0.2091
     22 C18         0.2500    1.9271    2.1381 C.2       1 <0>         0.1261
     23 C19        -0.7439    2.7196    1.6513 C.2       1 <0>        -0.1816
     24 C20        -1.1231    3.9446    2.3667 C.ar      1 <0>        -0.0210
     25 C21        -2.0234    4.8478    1.7874 C.ar      1 <0>        -0.1253
     26 C22        -2.3759    5.9962    2.4634 C.ar      1 <0>        -0.1018
     27 C23        -1.8436    6.2608    3.7129 C.ar      1 <0>        -0.1528
     28 C24        -0.9496    5.3724    4.2968 C.ar      1 <0>         0.1052
     29 C25        -0.5913    4.2125    3.6329 C.ar      1 <0>        -0.1473
     30 O4         -0.4309    5.6398    5.5242 O.3       1 <0>        -0.4998
     31 C26        -0.8127   -1.8719   -3.2815 C.3       1 <0>        -0.1391
     32 C27         1.0302   -2.5374   -1.7367 C.3       1 <0>        -0.1473
     33 H1          1.8619    2.0259   -0.7050 H         1 <0>         0.0647
     34 H2          0.7462    2.3614   -2.0506 H         1 <0>         0.0635
     35 H3          0.2439    2.6901   -0.3750 H         1 <0>         0.0736
     36 H4          0.8368    0.2167   -2.8316 H         1 <0>         0.1123
     37 H5         -1.9829   -1.2878   -1.0632 H         1 <0>         0.3475
     38 H6         -1.2593   -1.5469    1.2234 H         1 <0>         0.0998
     39 H7         -1.3463    0.6787    0.4671 H         1 <0>         0.0971
     40 H8          2.6074   -1.9946    1.6389 H         1 <0>         0.1547
     41 H9          0.9214   -2.9779    0.2447 H         1 <0>         0.1428
     42 H10         2.5743    3.1002    5.1257 H         1 <0>         0.1490
     43 H11         4.4244    1.7628    6.0302 H         1 <0>         0.1492
     44 H12         3.4422   -2.7657    4.8478 H         1 <0>         0.0475
     45 H13         1.9843   -2.6670    3.8314 H         1 <0>         0.0529
     46 H14         3.3668   -3.6599    3.3106 H         1 <0>         0.1022
     47 H15         4.8864   -1.1917    5.9381 H         1 <0>         0.3868
     48 H16        -1.2536    2.4474    0.7389 H         1 <0>         0.1505
     49 H17        -2.4406    4.6448    0.8121 H         1 <0>         0.1246
     50 H18        -3.0698    6.6923    2.0158 H         1 <0>         0.1265
     51 H19        -2.1244    7.1626    4.2366 H         1 <0>         0.1258
     52 H20         0.0998    3.5187    4.0884 H         1 <0>         0.1509
     53 H21        -0.9542    5.2880    6.2574 H         1 <0>         0.3889
     54 H22        -0.0875   -1.7448   -4.0852 H         1 <0>         0.0639
     55 H23        -1.1827   -2.8972   -3.2847 H         1 <0>         0.0676
     56 H24        -1.6454   -1.1847   -3.4314 H         1 <0>         0.0554
     57 H25         1.7447   -2.0982   -1.0405 H         1 <0>         0.0692
     58 H26         0.6617   -3.4802   -1.3325 H         1 <0>         0.0725
     59 H27         1.5199   -2.7189   -2.6935 H         1 <0>         0.0589
@<TRIPOS>BOND
     1    1    2 1
     2    1   33 1
     3    1   34 1
     4    1   35 1
     5    2    7 1
     6    2    3 2
     7    3    4 1
     8    3   36 1
     9    4    5 1
    10    4   31 1
    11    4   32 1
    12    5    6 1
    13    5   37 1
    14    6   11 1
    15    6    7 1
    16    6   38 1
    17    7    8 1
    18    7   39 1
    19    8   22 1
    20    8    9 2
    21    9   10 1
    22    9   12 1
    23   10   11 2
    24   10   40 1
    25   11   41 1
    26   12   17 ar
    27   12   13 ar
    28   13   14 ar
    29   13   21 1
    30   14   15 ar
    31   14   42 1
    32   15   16 ar
    33   15   43 1
    34   16   17 ar
    35   16   20 1
    36   17   18 1
    37   18   19 1
    38   19   44 1
    39   19   45 1
    40   19   46 1
    41   20   47 1
    42   21   22 1
    43   22   23 2
    44   23   24 1
    45   23   48 1
    46   24   29 ar
    47   24   25 ar
    48   25   26 ar
    49   25   49 1
    50   26   27 ar
    51   26   50 1
    52   27   28 ar
    53   27   51 1
    54   28   29 ar
    55   28   30 1
    56   29   52 1
    57   30   53 1
    58   31   54 1
    59   31   55 1
    60   31   56 1
    61   32   57 1
    62   32   58 1
    63   32   59 1
@<TRIPOS>MOLECULE
CHEMBL393946__3
   60    64     0     0     0
SMALL
USER_CHARGES

@<TRIPOS>ATOM
      1 C1          0.7238    1.8000   -0.9205 C.3       1 <0>        -0.1394
      2 C2          0.2119    0.3943   -0.7386 C.2       1 <0>        -0.0802
      3 C3          0.3103   -0.4372   -1.7319 C.2       1 <0>        -0.1801
      4 C4         -0.1647   -1.8596   -1.6548 C.3       1 <0>         0.1025
      5 N1         -1.1316   -2.0138   -0.5618 N.4       1 <0>        -0.4963
      6 C5         -0.5423   -1.4991    0.6820 C.3       1 <0>         0.0776
      7 C6         -0.3853    0.0117    0.5856 C.3       1 <0>        -0.0221
      8 C7          0.4761    0.5327    1.7028 C.2       1 <0>        -0.1027
      9 C8          1.5006   -0.2329    2.1866 C.2       1 <0>         0.0011
     10 C9          1.7327   -1.5765    1.6446 C.2       1 <0>        -0.0656
     11 C10         0.7799   -2.1673    0.9310 C.2       1 <0>        -0.2144
     12 C11         2.3495    0.3258    3.2546 C.ar      1 <0>        -0.1381
     13 C12         2.0525    1.6040    3.7519 C.ar      1 <0>         0.1330
     14 C13         2.8427    2.1446    4.7545 C.ar      1 <0>        -0.1220
     15 C14         3.9121    1.4294    5.2609 C.ar      1 <0>        -0.0745
     16 C15         4.2088    0.1649    4.7751 C.ar      1 <0>         0.0721
     17 C16         3.4286   -0.3944    3.7702 C.ar      1 <0>         0.1242
     18 O1          3.7143   -1.6344    3.2925 O.3       1 <0>        -0.3211
     19 C17         3.1614   -2.7457    4.0005 C.3       1 <0>         0.0255
     20 O2          5.2641   -0.5283    5.2824 O.3       1 <0>        -0.4781
     21 O3          1.0030    2.3018    3.2600 O.3       1 <0>        -0.2030
     22 C18         0.2433    1.8064    2.2612 C.2       1 <0>         0.1061
     23 C19        -0.7810    2.5606    1.7766 C.2       1 <0>        -0.1539
     24 C20        -1.1666    3.8015    2.4606 C.ar      1 <0>        -0.0406
     25 C21        -2.0981    4.6679    1.8744 C.ar      1 <0>        -0.1189
     26 C22        -2.4564    5.8314    2.5208 C.ar      1 <0>        -0.1016
     27 C23        -1.8993    6.1474    3.7474 C.ar      1 <0>        -0.1400
     28 C24        -0.9742    5.2958    4.3378 C.ar      1 <0>         0.1072
     29 C25        -0.6096    4.1213    3.7037 C.ar      1 <0>        -0.1395
     30 O4         -0.4313    5.6136    5.5425 O.3       1 <0>        -0.4979
     31 C26        -0.8299   -2.2442   -2.9778 C.3       1 <0>        -0.1724
     32 C27         1.0317   -2.7805   -1.4065 C.3       1 <0>        -0.1835
     33 H1          1.7739    1.8444   -0.6315 H         1 <0>         0.0821
     34 H2          0.6220    2.0914   -1.9658 H         1 <0>         0.0801
     35 H3          0.1459    2.4808   -0.2955 H         1 <0>         0.0844
     36 H4          0.7528   -0.0900   -2.6539 H         1 <0>         0.1535
     37 H5         -1.9696   -1.4949   -0.7775 H         1 <0>         0.4311
     38 H6         -1.2137   -1.7239    1.5107 H         1 <0>         0.1523
     39 H7         -1.3701    0.4706    0.6730 H         1 <0>         0.1272
     40 H8          2.6694   -2.0814    1.8293 H         1 <0>         0.1741
     41 H9          0.9662   -3.1470    0.5164 H         1 <0>         0.1634
     42 H10         2.6224    3.1286    5.1412 H         1 <0>         0.1542
     43 H11         4.5219    1.8595    6.0415 H         1 <0>         0.1555
     44 H12         3.4658   -3.6732    3.5157 H         1 <0>         0.1055
     45 H13         3.5227   -2.7375    5.0288 H         1 <0>         0.0548
     46 H14         2.0737   -2.6739    3.9970 H         1 <0>         0.0498
     47 H15         5.0403   -1.0871    6.0392 H         1 <0>         0.3919
     48 H16        -1.3101    2.2464    0.8891 H         1 <0>         0.1484
     49 H17        -2.5347    4.4247    0.9170 H         1 <0>         0.1253
     50 H18        -3.1745    6.4991    2.0681 H         1 <0>         0.1306
     51 H19        -2.1848    7.0607    4.2480 H         1 <0>         0.1309
     52 H20         0.1057    3.4561    4.1644 H         1 <0>         0.1508
     53 H21        -0.9297    5.2768    6.2996 H         1 <0>         0.3924
     54 H22        -0.1093   -2.1441   -3.7894 H         1 <0>         0.1082
     55 H23        -1.1755   -3.2766   -2.9241 H         1 <0>         0.0846
     56 H24        -1.6789   -1.5860   -3.1624 H         1 <0>         0.0832
     57 H25         1.7419   -2.2834   -0.7458 H         1 <0>         0.1031
     58 H26         0.6885   -3.7047   -0.9416 H         1 <0>         0.0837
     59 H27         1.5170   -3.0094   -2.3553 H         1 <0>         0.1021
     60 H28        -1.3589   -2.9903   -0.4481 H         1 <0>         0.4335
@<TRIPOS>BOND
     1    1    2 1
     2    1   33 1
     3    1   34 1
     4    1   35 1
     5    2    7 1
     6    2    3 2
     7    3    4 1
     8    3   36 1
     9    4    5 1
    10    4   31 1
    11    4   32 1
    12    5    6 1
    13    5   37 1
    14    5   60 1
    15    6   11 1
    16    6    7 1
    17    6   38 1
    18    7    8 1
    19    7   39 1
    20    8   22 1
    21    8    9 2
    22    9   10 1
    23    9   12 1
    24   10   11 2
    25   10   40 1
    26   11   41 1
    27   12   17 ar
    28   12   13 ar
    29   13   14 ar
    30   13   21 1
    31   14   15 ar
    32   14   42 1
    33   15   16 ar
    34   15   43 1
    35   16   17 ar
    36   16   20 1
    37   17   18 1
    38   18   19 1
    39   19   44 1
    40   19   45 1
    41   19   46 1
    42   20   47 1
    43   21   22 1
    44   22   23 2
    45   23   24 1
    46   23   48 1
    47   24   29 ar
    48   24   25 ar
    49   25   26 ar
    50   25   49 1
    51   26   27 ar
    52   26   50 1
    53   27   28 ar
    54   27   51 1
    55   28   29 ar
    56   28   30 1
    57   29   52 1
    58   30   53 1
    59   31   54 1
    60   31   55 1
    61   31   56 1
    62   32   57 1
    63   32   58 1
    64   32   59 1
@<TRIPOS>MOLECULE
CHEMBL393946__4
   59    63     0     0     0
SMALL
USER_CHARGES

@<TRIPOS>ATOM
      1 C1         -0.9629    1.6064    0.2774 C.3       1 <0>        -0.1262
      2 C2         -0.5519    0.1758    0.0420 C.2       1 <0>        -0.1018
      3 C3         -0.7378   -0.3354   -1.1370 C.2       1 <0>        -0.1425
      4 C4         -0.3725   -1.7507   -1.4820 C.3       1 <0>         0.1416
      5 N1          0.5873   -2.2771   -0.5034 N.3       1 <0>        -0.6640
      6 C5          0.0869   -2.0808    0.8652 C.3       1 <0>         0.1176
      7 C6          0.0588   -0.5897    1.1801 C.3       1 <0>         0.0132
      8 C7         -0.7123   -0.3290    2.4444 C.2       1 <0>        -0.1096
      9 C8         -1.7750   -1.1251    2.7706 C.2       1 <0>         0.0020
     10 C9         -2.1358   -2.2573    1.9098 C.2       1 <0>        -0.1397
     11 C10        -1.2759   -2.6991    0.9978 C.2       1 <0>        -0.1612
     12 C11        -2.5329   -0.8156    3.9966 C.ar      1 <0>        -0.1253
     13 C12        -2.1132    0.2599    4.7945 C.ar      1 <0>         0.1254
     14 C13        -2.8166    0.5655    5.9493 C.ar      1 <0>        -0.1268
     15 C14        -3.9197   -0.1846    6.3124 C.ar      1 <0>        -0.0883
     16 C15        -4.3375   -1.2500    5.5294 C.ar      1 <0>         0.0676
     17 C16        -3.6460   -1.5720    4.3676 C.ar      1 <0>         0.1232
     18 O1         -4.0511   -2.6161    3.5975 O.3       1 <0>        -0.3236
     19 C17        -3.4912   -3.8969    3.8946 C.3       1 <0>         0.0325
     20 O2         -5.4244   -1.9807    5.8987 O.3       1 <0>        -0.4865
     21 O3         -1.0306    0.9906    4.4419 O.3       1 <0>        -0.2093
     22 C18        -0.3553    0.7311    3.3032 C.2       1 <0>         0.1182
     23 C19         0.7050    1.5180    2.9724 C.2       1 <0>        -0.1683
     24 C20         1.1692    2.5540    3.9037 C.ar      1 <0>        -0.0229
     25 C21         0.6417    2.6230    5.1994 C.ar      1 <0>        -0.1292
     26 C22         1.0810    3.5977    6.0696 C.ar      1 <0>        -0.1028
     27 C23         2.0417    4.5089    5.6681 C.ar      1 <0>        -0.1510
     28 C24         2.5715    4.4502    4.3854 C.ar      1 <0>         0.1046
     29 C25         2.1448    3.4735    3.5030 C.ar      1 <0>        -0.1406
     30 O4          3.5145    5.3492    3.9986 O.3       1 <0>        -0.5004
     31 C26         0.2541   -1.7872   -2.8773 C.3       1 <0>        -0.1347
     32 C27        -1.6336   -2.6169   -1.4722 C.3       1 <0>        -0.1864
     33 H1         -0.1278    2.2673    0.0453 H         1 <0>         0.0700
     34 H2         -1.8094    1.8515   -0.3642 H         1 <0>         0.0622
     35 H3         -1.2489    1.7352    1.3213 H         1 <0>         0.0657
     36 H4         -1.1754    0.2855   -1.9046 H         1 <0>         0.1138
     37 H5          0.7861   -3.2505   -0.6796 H         1 <0>         0.3489
     38 H6          0.7667   -2.5677    1.5643 H         1 <0>         0.0973
     39 H7          1.0804   -0.2400    1.3294 H         1 <0>         0.1039
     40 H8         -3.1014   -2.7300    2.0120 H         1 <0>         0.1507
     41 H9         -1.5536   -3.5160    0.3483 H         1 <0>         0.1365
     42 H10        -2.5014    1.3927    6.5681 H         1 <0>         0.1478
     43 H11        -4.4612    0.0616    7.2139 H         1 <0>         0.1489
     44 H12        -2.4077   -3.8543    3.7839 H         1 <0>         0.0517
     45 H13        -3.7412   -4.1740    4.9187 H         1 <0>         0.0550
     46 H14        -3.8978   -4.6393    3.2078 H         1 <0>         0.0991
     47 H15        -6.2606   -1.6483    5.5445 H         1 <0>         0.3940
     48 H16         1.2049    1.3803    2.0250 H         1 <0>         0.1504
     49 H17        -0.1086    1.9137    5.5162 H         1 <0>         0.1493
     50 H18         0.6735    3.6505    7.0683 H         1 <0>         0.1256
     51 H19         2.3811    5.2698    6.3553 H         1 <0>         0.1258
     52 H20         2.5599    3.4239    2.5072 H         1 <0>         0.1284
     53 H21         4.4226    5.0667    4.1739 H         1 <0>         0.3900
     54 H22         1.1499   -1.1664   -2.8897 H         1 <0>         0.0653
     55 H23         0.5199   -2.8138   -3.1295 H         1 <0>         0.0570
     56 H24        -0.4612   -1.4075   -3.6068 H         1 <0>         0.0616
     57 H25        -2.1601   -2.5029   -2.4198 H         1 <0>         0.0615
     58 H26        -1.3556   -3.6619   -1.3346 H         1 <0>         0.0595
     59 H27        -2.2836   -2.3032   -0.6554 H         1 <0>         0.0754
@<TRIPOS>BOND
     1    1    2 1
     2    1   33 1
     3    1   34 1
     4    1   35 1
     5    2    7 1
     6    2    3 2
     7    3    4 1
     8    3   36 1
     9    4    5 1
    10    4   31 1
    11    4   32 1
    12    5    6 1
    13    5   37 1
    14    6   11 1
    15    6    7 1
    16    6   38 1
    17    7    8 1
    18    7   39 1
    19    8   22 1
    20    8    9 2
    21    9   10 1
    22    9   12 1
    23   10   11 2
    24   10   40 1
    25   11   41 1
    26   12   17 ar
    27   12   13 ar
    28   13   14 ar
    29   13   21 1
    30   14   15 ar
    31   14   42 1
    32   15   16 ar
    33   15   43 1
    34   16   17 ar
    35   16   20 1
    36   17   18 1
    37   18   19 1
    38   19   44 1
    39   19   45 1
    40   19   46 1
    41   20   47 1
    42   21   22 1
    43   22   23 2
    44   23   24 1
    45   23   48 1
    46   24   29 ar
    47   24   25 ar
    48   25   26 ar
    49   25   49 1
    50   26   27 ar
    51   26   50 1
    52   27   28 ar
    53   27   51 1
    54   28   29 ar
    55   28   30 1
    56   29   52 1
    57   30   53 1
    58   31   54 1
    59   31   55 1
    60   31   56 1
    61   32   57 1
    62   32   58 1
    63   32   59 1
@<TRIPOS>MOLECULE
CHEMBL393946__5
   60    64     0     0     0
SMALL
USER_CHARGES

@<TRIPOS>ATOM
      1 C1         -0.9129    1.2194    0.0747 C.3       1 <0>        -0.1362
      2 C2         -0.4425   -0.1882   -0.1869 C.2       1 <0>        -0.0808
      3 C3         -0.5575   -0.6697   -1.3880 C.2       1 <0>        -0.1796
      4 C4         -0.1229   -2.0596   -1.7545 C.3       1 <0>         0.1026
      5 N1          0.8321   -2.5709   -0.7646 N.4       1 <0>        -0.4971
      6 C5          0.2491   -2.4482    0.5787 C.3       1 <0>         0.0765
      7 C6          0.1454   -0.9736    0.9508 C.3       1 <0>        -0.0223
      8 C7         -0.6989   -0.7961    2.1827 C.2       1 <0>        -0.1020
      9 C8         -1.7443   -1.6449    2.4198 C.2       1 <0>         0.0012
     10 C9         -2.0158   -2.7519    1.4957 C.2       1 <0>        -0.0678
     11 C10        -1.0928   -3.1226    0.6125 C.2       1 <0>        -0.2135
     12 C11        -2.5752   -1.4168    3.6160 C.ar      1 <0>        -0.1396
     13 C12        -2.2407   -0.3602    4.4770 C.ar      1 <0>         0.1318
     14 C13        -3.0136   -0.1309    5.6048 C.ar      1 <0>        -0.1230
     15 C14        -4.1027   -0.9372    5.8791 C.ar      1 <0>        -0.0760
     16 C15        -4.4359   -1.9847    5.0338 C.ar      1 <0>         0.0756
     17 C16        -3.6739   -2.2307    3.8979 C.ar      1 <0>         0.1247
     18 O1         -3.9965   -3.2565    3.0667 O.3       1 <0>        -0.3259
     19 C17        -3.4006   -4.5260    3.3413 C.3       1 <0>         0.0278
     20 O2         -5.5093   -2.7718    5.3165 O.3       1 <0>        -0.4842
     21 O3         -1.1723    0.4259    4.2111 O.3       1 <0>        -0.2036
     22 C18        -0.4286    0.2391    3.1011 C.2       1 <0>         0.1025
     23 C19         0.6169    1.0768    2.8601 C.2       1 <0>        -0.1473
     24 C20         1.0254    2.0529    3.8783 C.ar      1 <0>        -0.0408
     25 C21         0.4642    2.0085    5.1608 C.ar      1 <0>        -0.1209
     26 C22         0.8512    2.9272    6.1128 C.ar      1 <0>        -0.1018
     27 C23         1.7927    3.8938    5.8065 C.ar      1 <0>        -0.1388
     28 C24         2.3556    3.9475    4.5377 C.ar      1 <0>         0.1071
     29 C25         1.9814    3.0281    3.5737 C.ar      1 <0>        -0.1367
     30 O4          3.2793    4.9003    4.2447 O.3       1 <0>        -0.4985
     31 C26         0.5401   -2.0362   -3.1332 C.3       1 <0>        -0.1726
     32 C27        -1.3461   -2.9776   -1.7997 C.3       1 <0>        -0.1820
     33 H1         -0.0919    1.9150   -0.0991 H         1 <0>         0.0857
     34 H2         -1.7386    1.4570   -0.5959 H         1 <0>         0.0790
     35 H3         -1.2483    1.3042    1.1084 H         1 <0>         0.0794
     36 H4         -0.9842   -0.0426   -2.1568 H         1 <0>         0.1535
     37 H5          1.0313   -3.5409   -0.9582 H         1 <0>         0.4333
     38 H6          0.9086   -2.9368    1.2960 H         1 <0>         0.1518
     39 H7          1.1431   -0.5902    1.1642 H         1 <0>         0.1276
     40 H8         -2.9661   -3.2641    1.5273 H         1 <0>         0.1731
     41 H9         -1.3037   -3.9207   -0.0839 H         1 <0>         0.1654
     42 H10        -2.7642    0.6812    6.2716 H         1 <0>         0.1529
     43 H11        -4.6990   -0.7499    6.7598 H         1 <0>         0.1554
     44 H12        -3.7411   -5.2541    2.6051 H         1 <0>         0.1039
     45 H13        -2.3155   -4.4369    3.2892 H         1 <0>         0.0480
     46 H14        -3.6906   -4.8552    4.3391 H         1 <0>         0.0621
     47 H15        -6.3393   -2.4579    4.9322 H         1 <0>         0.3994
     48 H16         1.1459    1.0237    1.9200 H         1 <0>         0.1455
     49 H17        -0.2712    1.2557    5.4035 H         1 <0>         0.1478
     50 H18         0.4178    2.8926    7.1014 H         1 <0>         0.1300
     51 H19         2.0911    4.6104    6.5575 H         1 <0>         0.1311
     52 H20         2.4223    3.0659    2.5886 H         1 <0>         0.1279
     53 H21         4.1911    4.6321    4.4228 H         1 <0>         0.3932
     54 H22         1.4082   -1.3776   -3.1077 H         1 <0>         0.0830
     55 H23         0.8564   -3.0442   -3.4014 H         1 <0>         0.0847
     56 H24        -0.1721   -1.6700   -3.8726 H         1 <0>         0.1083
     57 H25        -1.8204   -2.9030   -2.7782 H         1 <0>         0.1020
     58 H26        -1.0343   -4.0072   -1.6245 H         1 <0>         0.0839
     59 H27        -2.0551   -2.6765   -1.0284 H         1 <0>         0.1025
     60 H28         1.6857   -2.0349   -0.8117 H         1 <0>         0.4309
@<TRIPOS>BOND
     1    1    2 1
     2    1   33 1
     3    1   34 1
     4    1   35 1
     5    2    7 1
     6    2    3 2
     7    3    4 1
     8    3   36 1
     9    4    5 1
    10    4   31 1
    11    4   32 1
    12    5    6 1
    13    5   37 1
    14    5   60 1
    15    6   11 1
    16    6    7 1
    17    6   38 1
    18    7    8 1
    19    7   39 1
    20    8   22 1
    21    8    9 2
    22    9   10 1
    23    9   12 1
    24   10   11 2
    25   10   40 1
    26   11   41 1
    27   12   17 ar
    28   12   13 ar
    29   13   14 ar
    30   13   21 1
    31   14   15 ar
    32   14   42 1
    33   15   16 ar
    34   15   43 1
    35   16   17 ar
    36   16   20 1
    37   17   18 1
    38   18   19 1
    39   19   44 1
    40   19   45 1
    41   19   46 1
    42   20   47 1
    43   21   22 1
    44   22   23 2
    45   23   24 1
    46   23   48 1
    47   24   29 ar
    48   24   25 ar
    49   25   26 ar
    50   25   49 1
    51   26   27 ar
    52   26   50 1
    53   27   28 ar
    54   27   51 1
    55   28   29 ar
    56   28   30 1
    57   29   52 1
    58   30   53 1
    59   31   54 1
    60   31   55 1
    61   31   56 1
    62   32   57 1
    63   32   58 1
    64   32   59 1
@<TRIPOS>MOLECULE
CHEMBL393946__6
   59    63     0     0     0
SMALL
USER_CHARGES

@<TRIPOS>ATOM
      1 C1          0.3138    1.3930   -0.6381 C.3       1 <0>        -0.1222
      2 C2          0.2444   -0.1009   -0.4120 C.2       1 <0>        -0.1007
      3 C3          0.4153   -0.8717   -1.4550 C.2       1 <0>        -0.1811
      4 C4          0.2884   -2.3650   -1.4076 C.3       1 <0>         0.1430
      5 N1         -0.5019   -2.7663   -0.2335 N.3       1 <0>        -0.6607
      6 C5          0.0403   -2.1819    0.9809 C.3       1 <0>         0.1207
      7 C6         -0.0332   -0.6474    0.9348 C.3       1 <0>        -0.0330
      8 C7          0.7567   -0.1651    2.1021 C.2       1 <0>        -0.0995
      9 C8          0.4316   -0.7633    3.3178 C.2       1 <0>        -0.0142
     10 C9         -0.5410   -1.8632    3.3271 C.2       1 <0>        -0.1200
     11 C10        -0.7345   -2.5881    2.2141 C.2       1 <0>        -0.1219
     12 C11         1.0735   -0.2411    4.5339 C.ar      1 <0>        -0.1204
     13 C12         1.8419    0.9345    4.4344 C.ar      1 <0>         0.1240
     14 C13         2.4367    1.4755    5.5595 C.ar      1 <0>        -0.1271
     15 C14         2.2937    0.8551    6.7869 C.ar      1 <0>        -0.0894
     16 C15         1.5578   -0.3136    6.8963 C.ar      1 <0>         0.0636
     17 C16         0.9501   -0.8692    5.7739 C.ar      1 <0>         0.1238
     18 O1          0.2575   -2.0307    5.9101 O.3       1 <0>        -0.3258
     19 C17         0.9906   -3.2462    5.7461 C.3       1 <0>         0.0398
     20 O2          1.4283   -0.9248    8.1057 O.3       1 <0>        -0.4869
     21 O3          2.0158    1.5212    3.2201 O.3       1 <0>        -0.2269
     22 C18         1.8270    0.7295    2.1277 C.2       1 <0>         0.1028
     23 C19         2.7605    0.7750    1.1449 C.2       1 <0>        -0.1260
     24 C20         3.7554    1.8549    1.1266 C.ar      1 <0>        -0.0342
     25 C21         4.8219    1.8138    0.2197 C.ar      1 <0>        -0.1175
     26 C22         5.7531    2.8301    0.2069 C.ar      1 <0>        -0.1050
     27 C23         5.6384    3.8916    1.0870 C.ar      1 <0>        -0.1452
     28 C24         4.5850    3.9425    1.9911 C.ar      1 <0>         0.1019
     29 C25         3.6393    2.9327    2.0113 C.ar      1 <0>        -0.1335
     30 O4          4.4798    4.9884    2.8525 O.3       1 <0>        -0.4991
     31 C26         1.6735   -3.0024   -1.3625 C.3       1 <0>        -0.1336
     32 C27        -0.4358   -2.8373   -2.6728 C.3       1 <0>        -0.1401
     33 H1          1.3381    1.7354   -0.4913 H         1 <0>         0.0751
     34 H2         -0.0035    1.6216   -1.6555 H         1 <0>         0.0642
     35 H3         -0.3433    1.8984    0.0696 H         1 <0>         0.0607
     36 H4          0.6603   -0.4077   -2.3955 H         1 <0>         0.1137
     37 H5         -1.4764   -2.5370   -0.3576 H         1 <0>         0.3482
     38 H6          1.0740   -2.4793    1.1296 H         1 <0>         0.0949
     39 H7         -1.0951   -0.3964    1.1603 H         1 <0>         0.0880
     40 H8         -1.1231   -2.0833    4.2098 H         1 <0>         0.1397
     41 H9         -1.4094   -3.4224    2.1902 H         1 <0>         0.1379
     42 H10         3.0140    2.3851    5.4824 H         1 <0>         0.1468
     43 H11         2.7572    1.2840    7.6619 H         1 <0>         0.1473
     44 H12         1.4221   -3.2781    4.7456 H         1 <0>         0.0466
     45 H13         1.7883   -3.2923    6.4875 H         1 <0>         0.0524
     46 H14         0.3206   -4.0955    5.8800 H         1 <0>         0.0982
     47 H15         0.6628   -0.6278    8.6165 H         1 <0>         0.3931
     48 H16         2.7721    0.0170    0.3756 H         1 <0>         0.1434
     49 H17         4.9149    0.9867   -0.4685 H         1 <0>         0.1256
     50 H18         6.5754    2.7976   -0.4925 H         1 <0>         0.1277
     51 H19         6.3717    4.6844    1.0712 H         1 <0>         0.1271
     52 H20         2.8171    2.9740    2.7104 H         1 <0>         0.1533
     53 H21         3.9623    5.7298    2.5096 H         1 <0>         0.3899
     54 H22         2.2031   -2.6582   -0.4742 H         1 <0>         0.0524
     55 H23         1.5732   -4.0873   -1.3282 H         1 <0>         0.0674
     56 H24         2.2339   -2.7173   -2.2529 H         1 <0>         0.0629
     57 H25         0.1379   -2.5423   -3.5514 H         1 <0>         0.0647
     58 H26        -0.5348   -3.9225   -2.6510 H         1 <0>         0.0679
     59 H27        -1.4257   -2.3829   -2.7158 H         1 <0>         0.0557
@<TRIPOS>BOND
     1    1    2 1
     2    1   33 1
     3    1   34 1
     4    1   35 1
     5    2    7 1
     6    2    3 2
     7    3    4 1
     8    3   36 1
     9    4    5 1
    10    4   31 1
    11    4   32 1
    12    5    6 1
    13    5   37 1
    14    6   11 1
    15    6    7 1
    16    6   38 1
    17    7    8 1
    18    7   39 1
    19    8   22 1
    20    8    9 2
    21    9   10 1
    22    9   12 1
    23   10   11 2
    24   10   40 1
    25   11   41 1
    26   12   17 ar
    27   12   13 ar
    28   13   14 ar
    29   13   21 1
    30   14   15 ar
    31   14   42 1
    32   15   16 ar
    33   15   43 1
    34   16   17 ar
    35   16   20 1
    36   17   18 1
    37   18   19 1
    38   19   44 1
    39   19   45 1
    40   19   46 1
    41   20   47 1
    42   21   22 1
    43   22   23 2
    44   23   24 1
    45   23   48 1
    46   24   29 ar
    47   24   25 ar
    48   25   26 ar
    49   25   49 1
    50   26   27 ar
    51   26   50 1
    52   27   28 ar
    53   27   51 1
    54   28   29 ar
    55   28   30 1
    56   29   52 1
    57   30   53 1
    58   31   54 1
    59   31   55 1
    60   31   56 1
    61   32   57 1
    62   32   58 1
    63   32   59 1
@<TRIPOS>MOLECULE
CHEMBL393946__7
   60    64     0     0     0
SMALL
USER_CHARGES

@<TRIPOS>ATOM
      1 C1          0.3152    1.4023   -0.6357 C.3       1 <0>        -0.1325
      2 C2          0.2432   -0.0920   -0.4140 C.2       1 <0>        -0.0707
      3 C3          0.4137   -0.8619   -1.4581 C.2       1 <0>        -0.1901
      4 C4          0.2815   -2.3541   -1.4137 C.3       1 <0>         0.1012
      5 N1         -0.5217   -2.7587   -0.2505 N.4       1 <0>        -0.4878
      6 C5          0.0363   -2.1815    0.9600 C.3       1 <0>         0.0523
      7 C6         -0.0370   -0.6467    0.9305 C.3       1 <0>        -0.0090
      8 C7          0.7630   -0.1760    2.0962 C.2       1 <0>        -0.0986
      9 C8          0.4568   -0.7926    3.3075 C.2       1 <0>        -0.0130
     10 C9         -0.5145   -1.8935    3.3176 C.2       1 <0>        -0.0382
     11 C10        -0.7229   -2.6032    2.1983 C.2       1 <0>        -0.2096
     12 C11         1.1165   -0.2883    4.5219 C.ar      1 <0>        -0.1370
     13 C12         1.8668    0.8996    4.4326 C.ar      1 <0>         0.1307
     14 C13         2.4756    1.4252    5.5571 C.ar      1 <0>        -0.1236
     15 C14         2.3653    0.7764    6.7734 C.ar      1 <0>        -0.0764
     16 C15         1.6492   -0.4056    6.8715 C.ar      1 <0>         0.0702
     17 C16         1.0270   -0.9455    5.7494 C.ar      1 <0>         0.1264
     18 O1          0.3562   -2.1210    5.8719 O.3       1 <0>        -0.3282
     19 C17         1.1059   -3.3201    5.6668 C.3       1 <0>         0.0372
     20 O2          1.5524   -1.0447    8.0694 O.3       1 <0>        -0.4850
     21 O3          2.0089    1.5114    3.2263 O.3       1 <0>        -0.2205
     22 C18         1.8245    0.7290    2.1256 C.2       1 <0>         0.0804
     23 C19         2.7561    0.7943    1.1424 C.2       1 <0>        -0.0991
     24 C20         3.7386    1.8856    1.1332 C.ar      1 <0>        -0.0541
     25 C21         4.8047    1.8649    0.2251 C.ar      1 <0>        -0.1118
     26 C22         5.7242    2.8919    0.2209 C.ar      1 <0>        -0.1046
     27 C23         5.5981    3.9440    1.1107 C.ar      1 <0>        -0.1325
     28 C24         4.5450    3.9746    2.0160 C.ar      1 <0>         0.1044
     29 C25         3.6109    2.9539    2.0278 C.ar      1 <0>        -0.1263
     30 O4          4.4286    5.0114    2.8870 O.3       1 <0>        -0.4972
     31 C26         1.6628   -2.9984   -1.3625 C.3       1 <0>        -0.1714
     32 C27        -0.4345   -2.8199   -2.6868 C.3       1 <0>        -0.1736
     33 H1          1.3399    1.7428   -0.4867 H         1 <0>         0.0909
     34 H2         -0.0004    1.6343   -1.6529 H         1 <0>         0.0806
     35 H3         -0.3419    1.9068    0.0726 H         1 <0>         0.0757
     36 H4          0.6608   -0.3973   -2.3980 H         1 <0>         0.1549
     37 H5         -1.4745   -2.4388   -0.3775 H         1 <0>         0.4302
     38 H6          1.0709   -2.4803    1.0965 H         1 <0>         0.1482
     39 H7         -1.0968   -0.3933    1.1612 H         1 <0>         0.1195
     40 H8         -1.0808   -2.1265    4.2071 H         1 <0>         0.1605
     41 H9         -1.3987   -3.4370    2.1715 H         1 <0>         0.1565
     42 H10         3.0390    2.3444    5.4891 H         1 <0>         0.1521
     43 H11         2.8399    1.1930    7.6488 H         1 <0>         0.1537
     44 H12         0.4525   -4.1833    5.7937 H         1 <0>         0.1014
     45 H13         1.5190   -3.3223    4.6581 H         1 <0>         0.0419
     46 H14         1.9181   -3.3694    6.3921 H         1 <0>         0.0590
     47 H15         0.7927   -0.7707    8.6012 H         1 <0>         0.3986
     48 H16         2.7755    0.0437    0.3661 H         1 <0>         0.1411
     49 H17         4.9066    1.0452   -0.4706 H         1 <0>         0.1257
     50 H18         6.5462    2.8751   -0.4794 H         1 <0>         0.1317
     51 H19         6.3223    4.7452    1.1016 H         1 <0>         0.1322
     52 H20         2.7889    2.9795    2.7278 H         1 <0>         0.1540
     53 H21         3.9024    5.7499    2.5512 H         1 <0>         0.3938
     54 H22         2.1896   -2.6583   -0.4710 H         1 <0>         0.0784
     55 H23         1.5569   -4.0828   -1.3305 H         1 <0>         0.0860
     56 H24         2.2291   -2.7147   -2.2496 H         1 <0>         0.1106
     57 H25         0.1478   -2.5249   -3.5597 H         1 <0>         0.1095
     58 H26        -0.5383   -3.9048   -2.6690 H         1 <0>         0.0852
     59 H27        -1.4220   -2.3613   -2.7368 H         1 <0>         0.0840
     60 H28        -0.5273   -3.7685   -0.1823 H         1 <0>         0.4326
@<TRIPOS>BOND
     1    1    2 1
     2    1   33 1
     3    1   34 1
     4    1   35 1
     5    2    7 1
     6    2    3 2
     7    3    4 1
     8    3   36 1
     9    4    5 1
    10    4   31 1
    11    4   32 1
    12    5    6 1
    13    5   37 1
    14    5   60 1
    15    6   11 1
    16    6    7 1
    17    6   38 1
    18    7    8 1
    19    7   39 1
    20    8   22 1
    21    8    9 2
    22    9   10 1
    23    9   12 1
    24   10   11 2
    25   10   40 1
    26   11   41 1
    27   12   17 ar
    28   12   13 ar
    29   13   14 ar
    30   13   21 1
    31   14   15 ar
    32   14   42 1
    33   15   16 ar
    34   15   43 1
    35   16   17 ar
    36   16   20 1
    37   17   18 1
    38   18   19 1
    39   19   44 1
    40   19   45 1
    41   19   46 1
    42   20   47 1
    43   21   22 1
    44   22   23 2
    45   23   24 1
    46   23   48 1
    47   24   29 ar
    48   24   25 ar
    49   25   26 ar
    50   25   49 1
    51   26   27 ar
    52   26   50 1
    53   27   28 ar
    54   27   51 1
    55   28   29 ar
    56   28   30 1
    57   29   52 1
    58   30   53 1
    59   31   54 1
    60   31   55 1
    61   31   56 1
    62   32   57 1
    63   32   58 1
    64   32   59 1
@<TRIPOS>MOLECULE
CHEMBL231399
   50    53     0     0     0
SMALL
USER_CHARGES

@<TRIPOS>ATOM
      1 C1         -1.1413   -1.1188    4.1806 C.ar      1 <0>        -0.1243
      2 C2         -0.5417    0.1256    4.1255 C.ar      1 <0>        -0.1207
      3 C3          0.5013    0.3520    3.2470 C.ar      1 <0>        -0.1060
      4 C4          0.9451   -0.6662    2.4240 C.ar      1 <0>        -0.0743
      5 C5          0.3462   -1.9108    2.4798 C.ar      1 <0>        -0.1154
      6 C6         -0.6978   -2.1368    3.3572 C.ar      1 <0>        -0.1240
      7 C7          2.0816   -0.4191    1.4656 C.3       1 <0>        -0.0049
      8 C8          3.3903   -0.7163    2.1510 C.2       1 <0>        -0.2913
      9 C9          3.9753   -1.9457    2.0253 C.2       1 <0>         0.4631
     10 N1          5.1685   -2.1930    2.6596 N.am      1 <0>        -0.6475
     11 H1          5.5888   -3.0630    2.5741 H         1 <0>         0.4300
     12 C10         5.7578   -1.2350    3.3985 C.2       1 <0>         0.7082
     13 O1          6.8137   -1.4712    3.9530 O.2       1 <0>        -0.5406
     14 N2          5.1962   -0.0198    3.5324 N.am      1 <0>        -0.6603
     15 H2          5.6374    0.6573    4.0690 H         1 <0>         0.4322
     16 C11         4.0290    0.2668    2.9229 C.2       1 <0>         0.5623
     17 O2          3.5285    1.3718    3.0449 O.2       1 <0>        -0.5130
     18 N3          3.3760   -2.9233    1.2731 N.pl3     1 <0>        -0.6405
     19 C12         3.0598   -2.6902   -0.1427 C.3       1 <0>         0.1317
     20 C13         3.6764   -3.8169   -0.9776 C.3       1 <0>        -0.1299
     21 C14         3.1953   -5.1667   -0.4401 C.3       1 <0>        -0.0444
     22 C15         3.6547   -5.3332    1.0102 C.3       1 <0>        -0.1319
     23 C16         3.0434   -4.2258    1.8660 C.3       1 <0>         0.1263
     24 C17         3.7729   -6.2764   -1.2803 C.ar      1 <0>        -0.0667
     25 C18         5.1437   -6.4293   -1.3757 C.ar      1 <0>        -0.1100
     26 C19         5.6742   -7.4469   -2.1461 C.ar      1 <0>        -0.1035
     27 C20         4.8344   -8.3121   -2.8221 C.ar      1 <0>        -0.1133
     28 C21         3.4628   -8.1597   -2.7270 C.ar      1 <0>        -0.0315
     29 C22         2.9322   -7.1445   -1.9507 C.ar      1 <0>        -0.1069
     30 Cl1         2.4075   -9.2459   -3.5756 Cl        1 <0>        -0.0675
     31 H3         -1.9532   -1.2969    4.8701 H         1 <0>         0.1183
     32 H4         -0.8885    0.9210    4.7685 H         1 <0>         0.1196
     33 H5          0.9692    1.3243    3.2034 H         1 <0>         0.1276
     34 H6          0.6927   -2.7061    1.8365 H         1 <0>         0.1176
     35 H7         -1.1659   -3.1090    3.4005 H         1 <0>         0.1181
     36 H8          1.9712   -1.0674    0.5963 H         1 <0>         0.0870
     37 H9          2.0673    0.6229    1.1459 H         1 <0>         0.0867
     38 H10         1.9784   -2.6839   -0.2793 H         1 <0>         0.0771
     39 H11         3.4754   -1.7329   -0.4572 H         1 <0>         0.0883
     40 H12         3.3689   -3.7091   -2.0178 H         1 <0>         0.0830
     41 H13         4.7632   -3.7656   -0.9118 H         1 <0>         0.0717
     42 H14         2.1069   -5.2077   -0.4832 H         1 <0>         0.0860
     43 H15         3.3319   -6.3045    1.3849 H         1 <0>         0.0819
     44 H16         4.7417   -5.2676    1.0573 H         1 <0>         0.0703
     45 H17         3.4484   -4.2813    2.8765 H         1 <0>         0.0792
     46 H18         1.9607   -4.3475    1.8968 H         1 <0>         0.0777
     47 H19         5.8003   -5.7531   -0.8483 H         1 <0>         0.1262
     48 H20         6.7451   -7.5658   -2.2203 H         1 <0>         0.1323
     49 H21         5.2491   -9.1068   -3.4246 H         1 <0>         0.1332
     50 H22         1.8614   -7.0277   -1.8725 H         1 <0>         0.1329
@<TRIPOS>BOND
     1    1    6 ar
     2    1    2 ar
     3    1   31 1
     4    2    3 ar
     5    2   32 1
     6    3    4 ar
     7    3   33 1
     8    4    5 ar
     9    4    7 1
    10    5    6 ar
    11    5   34 1
    12    6   35 1
    13    7    8 1
    14    7   36 1
    15    7   37 1
    16    8   16 1
    17    8    9 2
    18    9   10 1
    19    9   18 1
    20   10   11 1
    21   10   12 am
    22   12   13 2
    23   12   14 am
    24   14   15 1
    25   14   16 am
    26   16   17 2
    27   18   23 1
    28   18   19 1
    29   19   20 1
    30   19   38 1
    31   19   39 1
    32   20   21 1
    33   20   40 1
    34   20   41 1
    35   21   22 1
    36   21   24 1
    37   21   42 1
    38   22   23 1
    39   22   43 1
    40   22   44 1
    41   23   45 1
    42   23   46 1
    43   24   29 ar
    44   24   25 ar
    45   25   26 ar
    46   25   47 1
    47   26   27 ar
    48   26   48 1
    49   27   28 ar
    50   27   49 1
    51   28   29 ar
    52   28   30 1
    53   29   50 1
@<TRIPOS>MOLECULE
CHEMBL266282
   51    54     0     0     0
SMALL
USER_CHARGES

@<TRIPOS>ATOM
      1 C1         -0.0183    1.5001    0.0103 C.3       1 <0>        -0.1215
      2 C2          0.0021   -0.0041    0.0020 C.2       1 <0>        -0.0603
      3 C3         -0.1103   -0.5534   -1.2118 C.2       1 <0>        -0.1790
      4 C4         -0.0753   -2.0411   -1.4078 C.3       1 <0>         0.2120
      5 N1          0.7459   -2.6301   -0.3461 N.pl3     1 <0>        -0.7385
      6 C5          0.5751   -2.1780    0.9639 C.ar      1 <0>         0.2183
      7 C6          0.1299   -0.8524    1.1962 C.ar      1 <0>        -0.0855
      8 C7         -0.2044   -0.5012    2.4978 C.ar      1 <0>        -0.0568
      9 C8          0.0605   -1.4023    3.5476 C.ar      1 <0>        -0.0763
     10 C9          0.6803   -2.6213    3.3049 C.ar      1 <0>        -0.0437
     11 C10         0.9288   -3.0105    2.0073 C.ar      1 <0>        -0.1838
     12 C11        -0.3481   -1.0414    4.9273 C.ar      1 <0>        -0.1342
     13 C12        -0.5499    0.3190    5.2077 C.ar      1 <0>         0.1588
     14 C13        -0.9009    0.7276    6.4789 C.ar      1 <0>        -0.1773
     15 C14        -1.0621   -0.2103    7.4835 C.ar      1 <0>        -0.0495
     16 C15        -0.8801   -1.5525    7.2165 C.ar      1 <0>        -0.2350
     17 C16        -0.5324   -1.9759    5.9381 C.ar      1 <0>         0.1657
     18 O1         -0.4129   -3.3096    5.7057 O.3       1 <0>        -0.3092
     19 C17        -0.6231   -4.1831    6.8169 C.3       1 <0>         0.0239
     20 O2         -0.3995    1.2074    4.1965 O.3       1 <0>        -0.3040
     21 C18        -0.8491    0.7980    2.8962 C.3       1 <0>         0.1428
     22 C19        -2.3706    0.6150    2.9402 C.3       1 <0>        -0.1186
     23 C20        -3.0283    1.9420    3.2184 C.2       1 <0>        -0.1498
     24 C21        -3.9453    2.4021    2.4039 C.2       1 <0>        -0.1895
     25 C22        -1.4932   -2.6094   -1.3386 C.3       1 <0>        -0.1570
     26 C23         0.5382   -2.3676   -2.7700 C.3       1 <0>        -0.1522
     27 H1          0.6464    1.8682    0.7918 H         1 <0>         0.0677
     28 H2          0.3169    1.8733   -0.9574 H         1 <0>         0.0717
     29 H3         -1.0331    1.8486    0.2025 H         1 <0>         0.0719
     30 H4         -0.2284    0.0976   -2.0645 H         1 <0>         0.1232
     31 H5          1.3962   -3.3209   -0.5496 H         1 <0>         0.4018
     32 H6          1.0029   -3.2526    4.1185 H         1 <0>         0.1357
     33 H7          1.3992   -3.9625    1.8030 H         1 <0>         0.1263
     34 H8         -1.0485    1.7763    6.6924 H         1 <0>         0.1341
     35 H9         -1.3302    0.1100    8.4783 H         1 <0>         0.1328
     36 H10        -1.0114   -2.2817    8.0032 H         1 <0>         0.1327
     37 H11         0.1008   -3.9562    7.5995 H         1 <0>         0.0577
     38 H12        -1.6324   -4.0425    7.2038 H         1 <0>         0.0574
     39 H13        -0.4982   -5.2170    6.4951 H         1 <0>         0.1014
     40 H14        -0.6094    1.6179    2.2408 H         1 <0>         0.1282
     41 H15        -2.7182    0.2312    1.9811 H         1 <0>         0.0837
     42 H16        -2.6289   -0.0911    3.7293 H         1 <0>         0.0809
     43 H17        -2.7436    2.5137    4.0893 H         1 <0>         0.1141
     44 H18        -4.4167    3.3531    2.6033 H         1 <0>         0.1000
     45 H19        -4.2300    1.8304    1.5330 H         1 <0>         0.0956
     46 H20        -2.1040   -2.1583   -2.1206 H         1 <0>         0.0657
     47 H21        -1.4591   -3.6894   -1.4818 H         1 <0>         0.0598
     48 H22        -1.9272   -2.3856   -0.3641 H         1 <0>         0.0569
     49 H23         1.5534   -1.9734   -2.8152 H         1 <0>         0.0632
     50 H24         0.5617   -3.4486   -2.9082 H         1 <0>         0.0634
     51 H25        -0.0632   -1.9137   -3.5576 H         1 <0>         0.0743
@<TRIPOS>BOND
     1    1    2 1
     2    1   27 1
     3    1   28 1
     4    1   29 1
     5    2    7 1
     6    2    3 2
     7    3    4 1
     8    3   30 1
     9    4    5 1
    10    4   25 1
    11    4   26 1
    12    5    6 1
    13    5   31 1
    14    6   11 ar
    15    6    7 ar
    16    7    8 ar
    17    8   21 1
    18    8    9 ar
    19    9   10 ar
    20    9   12 1
    21   10   11 ar
    22   10   32 1
    23   11   33 1
    24   12   17 ar
    25   12   13 ar
    26   13   14 ar
    27   13   20 1
    28   14   15 ar
    29   14   34 1
    30   15   16 ar
    31   15   35 1
    32   16   17 ar
    33   16   36 1
    34   17   18 1
    35   18   19 1
    36   19   37 1
    37   19   38 1
    38   19   39 1
    39   20   21 1
    40   21   22 1
    41   21   40 1
    42   22   23 1
    43   22   41 1
    44   22   42 1
    45   23   24 2
    46   23   43 1
    47   24   44 1
    48   24   45 1
    49   25   46 1
    50   25   47 1
    51   25   48 1
    52   26   49 1
    53   26   50 1
    54   26   51 1
@<TRIPOS>MOLECULE
CHEMBL266282__1
   51    54     0     0     0
SMALL
USER_CHARGES

@<TRIPOS>ATOM
      1 C1         -0.2177    1.7053    0.0103 C.3       1 <0>        -0.1248
      2 C2         -0.1622    0.2045   -0.0989 C.2       1 <0>        -0.0615
      3 C3         -0.3264   -0.2941   -1.3257 C.2       1 <0>        -0.1768
      4 C4         -0.2776   -1.7727   -1.5854 C.3       1 <0>         0.2125
      5 N1          0.5970   -2.4045   -0.5930 N.pl3     1 <0>        -0.7378
      6 C5          0.5059   -2.0033    0.7410 C.ar      1 <0>         0.2198
      7 C6          0.0646   -0.6931    1.0445 C.ar      1 <0>        -0.0893
      8 C7         -0.1790   -0.3809    2.3735 C.ar      1 <0>        -0.0610
      9 C8          0.2157   -1.2756    3.3849 C.ar      1 <0>        -0.0742
     10 C9          0.7808   -2.5022    3.0623 C.ar      1 <0>        -0.0455
     11 C10         0.9221   -2.8631    1.7384 C.ar      1 <0>        -0.1843
     12 C11        -0.0169   -0.8909    4.7978 C.ar      1 <0>        -0.1308
     13 C12        -1.0194    0.0621    5.0460 C.ar      1 <0>         0.1564
     14 C13        -1.3137    0.4466    6.3383 C.ar      1 <0>        -0.1731
     15 C14        -0.6135   -0.1049    7.3972 C.ar      1 <0>        -0.0519
     16 C15         0.3813   -1.0339    7.1645 C.ar      1 <0>        -0.2328
     17 C16         0.6888   -1.4272    5.8662 C.ar      1 <0>         0.1640
     18 O1          1.7003   -2.3147    5.6763 O.3       1 <0>        -0.3102
     19 C17         2.3609   -2.8052    6.8447 C.3       1 <0>         0.0243
     20 O2         -1.6706    0.5979    3.9808 O.3       1 <0>        -0.3015
     21 C18        -0.8522    0.8854    2.8325 C.3       1 <0>         0.1433
     22 C19         0.2001    1.9152    3.2475 C.3       1 <0>        -0.1220
     23 C20        -0.4770    3.2206    3.5770 C.2       1 <0>        -0.1520
     24 C21        -0.2797    3.7849    4.7426 C.2       1 <0>        -0.1823
     25 C22        -1.6845   -2.3625   -1.4820 C.3       1 <0>        -0.1578
     26 C23         0.2782   -2.0273   -2.9882 C.3       1 <0>        -0.1525
     27 H1          0.4907    2.0409    0.7677 H         1 <0>         0.0709
     28 H2          0.0408    2.1493   -0.9511 H         1 <0>         0.0705
     29 H3         -1.2246    2.0121    0.2932 H         1 <0>         0.0716
     30 H4         -0.4962    0.3887   -2.1445 H         1 <0>         0.1236
     31 H5          1.2306   -3.0916   -0.8584 H         1 <0>         0.4019
     32 H6          1.0917   -3.1917    3.8311 H         1 <0>         0.1359
     33 H7          1.3585   -3.8185    1.4809 H         1 <0>         0.1258
     34 H8         -2.0880    1.1762    6.5260 H         1 <0>         0.1339
     35 H9         -0.8465    0.1940    8.4080 H         1 <0>         0.1326
     36 H10         0.9270   -1.4597    7.9942 H         1 <0>         0.1325
     37 H11         2.8020   -1.9707    7.3899 H         1 <0>         0.0574
     38 H12         1.6395   -3.3155    7.4828 H         1 <0>         0.0577
     39 H13         3.1453   -3.5034    6.5524 H         1 <0>         0.1015
     40 H14        -1.5068    1.2830    2.0689 H         1 <0>         0.1265
     41 H15         0.7370    1.5529    4.1242 H         1 <0>         0.0785
     42 H16         0.9028    2.0670    2.4282 H         1 <0>         0.0919
     43 H17        -1.1249    3.6909    2.8521 H         1 <0>         0.1117
     44 H18        -0.7649    4.7204    4.9787 H         1 <0>         0.0994
     45 H19         0.3683    3.3146    5.4675 H         1 <0>         0.0945
     46 H20        -2.3325   -1.8881   -2.2190 H         1 <0>         0.0660
     47 H21        -1.6436   -3.4352   -1.6711 H         1 <0>         0.0597
     48 H22        -2.0804   -2.1847   -0.4821 H         1 <0>         0.0575
     49 H23         1.2836   -1.6126   -3.0615 H         1 <0>         0.0630
     50 H24         0.3133   -3.1005   -3.1758 H         1 <0>         0.0633
     51 H25        -0.3663   -1.5503   -3.7265 H         1 <0>         0.0742
@<TRIPOS>BOND
     1    1    2 1
     2    1   27 1
     3    1   28 1
     4    1   29 1
     5    2    7 1
     6    2    3 2
     7    3    4 1
     8    3   30 1
     9    4    5 1
    10    4   25 1
    11    4   26 1
    12    5    6 1
    13    5   31 1
    14    6   11 ar
    15    6    7 ar
    16    7    8 ar
    17    8   21 1
    18    8    9 ar
    19    9   10 ar
    20    9   12 1
    21   10   11 ar
    22   10   32 1
    23   11   33 1
    24   12   17 ar
    25   12   13 ar
    26   13   14 ar
    27   13   20 1
    28   14   15 ar
    29   14   34 1
    30   15   16 ar
    31   15   35 1
    32   16   17 ar
    33   16   36 1
    34   17   18 1
    35   18   19 1
    36   19   37 1
    37   19   38 1
    38   19   39 1
    39   20   21 1
    40   21   22 1
    41   21   40 1
    42   22   23 1
    43   22   41 1
    44   22   42 1
    45   23   24 2
    46   23   43 1
    47   24   44 1
    48   24   45 1
    49   25   46 1
    50   25   47 1
    51   25   48 1
    52   26   49 1
    53   26   50 1
    54   26   51 1
@<TRIPOS>MOLECULE
CHEMBL197846
   51    54     0     0     0
SMALL
USER_CHARGES

@<TRIPOS>ATOM
      1 C1         -0.0173    1.5056    0.0406 C.3       1 <0>        -0.1409
      2 C2          0.0019   -0.0008    0.0019 C.2       1 <0>        -0.0551
      3 C3         -1.1326   -0.6822    0.1096 C.2       1 <0>        -0.2203
      4 C4         -1.3030   -2.1454    0.2412 C.2       1 <0>         0.3912
      5 O1         -0.4242   -2.9549    0.4452 O.2       1 <0>        -0.4470
      6 C5         -2.7909   -2.4597    0.0584 C.3       1 <0>        -0.1681
      7 C6         -3.2956   -1.1949   -0.6558 C.3       1 <0>        -0.0669
      8 C7         -2.5379   -0.1090    0.1418 C.3       1 <0>        -0.0136
      9 C8         -2.7051    1.2325   -0.5235 C.3       1 <0>        -0.1075
     10 C9         -4.1527    1.4464   -0.9849 C.3       1 <0>        -0.1143
     11 C10        -5.1295    0.4792   -0.3303 C.3       1 <0>        -0.0676
     12 C11        -4.7774   -0.9662   -0.6664 C.3       1 <0>        -0.0684
     13 C12        -5.5515   -1.9531    0.1927 C.3       1 <0>        -0.1093
     14 C13        -6.9847   -1.4683    0.4148 C.3       1 <0>        -0.0962
     15 C14        -7.3598   -0.5018   -0.6830 C.2       1 <0>        -0.0144
     16 C15        -8.3799   -0.7684   -1.4912 C.2       1 <0>        -0.2412
     17 C16        -8.7562    0.1475   -2.5645 C.2       1 <0>         0.3875
     18 O2         -9.7316   -0.0919   -3.2478 O.2       1 <0>        -0.4656
     19 C17        -7.9396    1.3847   -2.8318 C.3       1 <0>        -0.1694
     20 C18        -6.5198    1.1960   -2.2943 C.3       1 <0>        -0.1060
     21 C19        -6.5566    0.7668   -0.8322 C.3       1 <0>        -0.0363
     22 C20        -7.1733    1.8696    0.0310 C.3       1 <0>        -0.1403
     23 C21        -2.9502   -0.0542    1.6127 C.3       1 <0>        -0.1477
     24 H1         -0.5243    1.8394    0.9459 H         1 <0>         0.0763
     25 H2          1.0056    1.8823    0.0371 H         1 <0>         0.0662
     26 H3         -0.5470    1.8848   -0.8333 H         1 <0>         0.0851
     27 H4          0.9385   -0.5261   -0.1135 H         1 <0>         0.1214
     28 H5         -2.9139   -3.3333   -0.5861 H         1 <0>         0.0930
     29 H6         -3.2802   -2.6182    1.0112 H         1 <0>         0.1096
     30 H7         -2.9201   -1.2109   -1.6987 H         1 <0>         0.0806
     31 H8         -2.4259    2.0297    0.1774 H         1 <0>         0.0685
     32 H9         -2.0380    1.3016   -1.3926 H         1 <0>         0.0692
     33 H10        -4.4488    2.4758   -0.7564 H         1 <0>         0.0673
     34 H11        -4.1933    1.3203   -2.0736 H         1 <0>         0.0669
     35 H12        -5.1490    0.6272    0.7482 H         1 <0>         0.0872
     36 H13        -5.1217   -1.1338   -1.7108 H         1 <0>         0.0666
     37 H14        -5.5805   -2.9205   -0.3087 H         1 <0>         0.0699
     38 H15        -5.0651   -2.0631    1.1593 H         1 <0>         0.0719
     39 H16        -7.6611   -2.3228    0.3937 H         1 <0>         0.0777
     40 H17        -7.0533   -0.9712    1.3811 H         1 <0>         0.0839
     41 H18        -8.9428   -1.6800   -1.3497 H         1 <0>         0.1299
     42 H19        -7.8921    1.5528   -3.9135 H         1 <0>         0.0946
     43 H20        -8.4107    2.2494   -2.3685 H         1 <0>         0.1027
     44 H21        -6.0072    0.4344   -2.8869 H         1 <0>         0.0721
     45 H22        -5.9752    2.1393   -2.3870 H         1 <0>         0.0836
     46 H23        -6.5672    2.7724   -0.0452 H         1 <0>         0.0673
     47 H24        -8.1846    2.0805   -0.3168 H         1 <0>         0.0590
     48 H25        -7.2074    1.5415    1.0699 H         1 <0>         0.0614
     49 H26        -2.3105    0.6511    2.1432 H         1 <0>         0.0587
     50 H27        -3.9883    0.2697    1.6872 H         1 <0>         0.0716
     51 H28        -2.8458   -1.0443    2.0565 H         1 <0>         0.0553
@<TRIPOS>BOND
     1    1    2 1
     2    1   24 1
     3    1   25 1
     4    1   26 1
     5    2    3 2
     6    2   27 1
     7    3    8 1
     8    3    4 1
     9    4    5 2
    10    4    6 1
    11    6    7 1
    12    6   28 1
    13    6   29 1
    14    7   12 1
    15    7    8 1
    16    7   30 1
    17    8    9 1
    18    8   23 1
    19    9   10 1
    20    9   31 1
    21    9   32 1
    22   10   11 1
    23   10   33 1
    24   10   34 1
    25   11   21 1
    26   11   12 1
    27   11   35 1
    28   12   13 1
    29   12   36 1
    30   13   14 1
    31   13   37 1
    32   13   38 1
    33   14   15 1
    34   14   39 1
    35   14   40 1
    36   15   21 1
    37   15   16 2
    38   16   17 1
    39   16   41 1
    40   17   18 2
    41   17   19 1
    42   19   20 1
    43   19   42 1
    44   19   43 1
    45   20   21 1
    46   20   44 1
    47   20   45 1
    48   21   22 1
    49   22   46 1
    50   22   47 1
    51   22   48 1
    52   23   49 1
    53   23   50 1
    54   23   51 1
@<TRIPOS>MOLECULE
CHEMBL197846__1
   51    54     0     0     0
SMALL
USER_CHARGES

@<TRIPOS>ATOM
      1 C1         -0.0255    1.5160    0.0238 C.3       1 <0>        -0.1403
      2 C2          0.0015    0.0094    0.0019 C.2       1 <0>        -0.0559
      3 C3         -1.1286   -0.6755    0.1102 C.2       1 <0>        -0.2205
      4 C4         -1.3001   -2.1399    0.2451 C.2       1 <0>         0.3922
      5 O1         -0.4287   -2.9455    0.4896 O.2       1 <0>        -0.4462
      6 C5         -2.7795   -2.4597    0.0038 C.3       1 <0>        -0.1666
      7 C6         -3.2613   -1.1818   -0.7010 C.3       1 <0>        -0.0755
      8 C7         -2.5404   -0.1133    0.1422 C.3       1 <0>        -0.0132
      9 C8         -2.7232    1.2432   -0.4799 C.3       1 <0>        -0.1051
     10 C9         -4.1900    1.4935   -0.8601 C.3       1 <0>        -0.1150
     11 C10        -5.1382    0.4305   -0.3426 C.3       1 <0>        -0.0680
     12 C11        -4.7562   -0.9719   -0.7846 C.3       1 <0>        -0.0602
     13 C12        -5.1288   -1.1949   -2.2616 C.3       1 <0>        -0.1160
     14 C13        -6.6388   -1.0729   -2.4456 C.3       1 <0>        -0.0974
     15 C14        -7.0422    0.3147   -1.9801 C.2       1 <0>        -0.0152
     16 C15        -7.7749    1.0541   -2.8143 C.2       1 <0>        -0.2447
     17 C16        -8.1999    2.4017   -2.4196 C.2       1 <0>         0.3878
     18 O2         -8.5270    3.2345   -3.2380 O.2       1 <0>        -0.4575
     19 C17        -8.2056    2.6967   -0.9315 C.3       1 <0>        -0.1690
     20 C18        -6.8498    2.2519   -0.3799 C.3       1 <0>        -0.1104
     21 C19        -6.6014    0.7724   -0.6290 C.3       1 <0>        -0.0277
     22 C20        -7.4372    0.0073    0.4083 C.3       1 <0>        -0.1474
     23 C21        -2.9531   -0.1200    1.6133 C.3       1 <0>        -0.1490
     24 H1         -0.5412    1.8571    0.9214 H         1 <0>         0.0765
     25 H2          0.9955    1.8976    0.0241 H         1 <0>         0.0663
     26 H3         -0.5502    1.8828   -0.8584 H         1 <0>         0.0841
     27 H4          0.9413   -0.5125   -0.1020 H         1 <0>         0.1214
     28 H5         -2.8723   -3.3198   -0.6636 H         1 <0>         0.0932
     29 H6         -3.3064   -2.6398    0.9325 H         1 <0>         0.1071
     30 H7         -2.8477   -1.1790   -1.7310 H         1 <0>         0.0821
     31 H8         -2.3861    2.0224    0.2176 H         1 <0>         0.0695
     32 H9         -2.1012    1.3241   -1.3838 H         1 <0>         0.0674
     33 H10        -4.4771    2.4746   -0.4557 H         1 <0>         0.0697
     34 H11        -4.2726    1.5525   -1.9531 H         1 <0>         0.0611
     35 H12        -5.1062    0.4601    0.7584 H         1 <0>         0.0815
     36 H13        -5.2743   -1.7191   -0.1736 H         1 <0>         0.0815
     37 H14        -4.6279   -0.4420   -2.8705 H         1 <0>         0.0680
     38 H15        -4.8002   -2.1884   -2.5654 H         1 <0>         0.0707
     39 H16        -6.8908   -1.1874   -3.5014 H         1 <0>         0.0773
     40 H17        -7.1508   -1.8325   -1.8620 H         1 <0>         0.0857
     41 H18        -8.0560    0.6594   -3.7795 H         1 <0>         0.1332
     42 H19        -8.3355    3.7676   -0.7695 H         1 <0>         0.0918
     43 H20        -9.0123    2.1509   -0.4481 H         1 <0>         0.0996
     44 H21        -6.0782    2.8369   -0.8783 H         1 <0>         0.0760
     45 H22        -6.8193    2.4442    0.6905 H         1 <0>         0.0829
     46 H23        -7.1514    0.3250    1.4110 H         1 <0>         0.0650
     47 H24        -8.4949    0.2166    0.2485 H         1 <0>         0.0594
     48 H25        -7.2584   -1.0626    0.3013 H         1 <0>         0.0621
     49 H26        -2.3170    0.5663    2.1723 H         1 <0>         0.0596
     50 H27        -3.9928    0.1957    1.7004 H         1 <0>         0.0717
     51 H28        -2.8441   -1.1267    2.0167 H         1 <0>         0.0564
@<TRIPOS>BOND
     1    1    2 1
     2    1   24 1
     3    1   25 1
     4    1   26 1
     5    2    3 2
     6    2   27 1
     7    3    8 1
     8    3    4 1
     9    4    5 2
    10    4    6 1
    11    6    7 1
    12    6   28 1
    13    6   29 1
    14    7   12 1
    15    7    8 1
    16    7   30 1
    17    8    9 1
    18    8   23 1
    19    9   10 1
    20    9   31 1
    21    9   32 1
    22   10   11 1
    23   10   33 1
    24   10   34 1
    25   11   21 1
    26   11   12 1
    27   11   35 1
    28   12   13 1
    29   12   36 1
    30   13   14 1
    31   13   37 1
    32   13   38 1
    33   14   15 1
    34   14   39 1
    35   14   40 1
    36   15   21 1
    37   15   16 2
    38   16   17 1
    39   16   41 1
    40   17   18 2
    41   17   19 1
    42   19   20 1
    43   19   42 1
    44   19   43 1
    45   20   21 1
    46   20   44 1
    47   20   45 1
    48   21   22 1
    49   22   46 1
    50   22   47 1
    51   22   48 1
    52   23   49 1
    53   23   50 1
    54   23   51 1
@<TRIPOS>MOLECULE
CHEMBL197846__2
   51    54     0     0     0
SMALL
USER_CHARGES

@<TRIPOS>ATOM
      1 C1         -0.0184    1.5028    0.0103 C.3       1 <0>        -0.1386
      2 C2          0.0021   -0.0041    0.0020 C.2       1 <0>        -0.0555
      3 C3         -1.1388   -0.6836    0.0093 C.2       1 <0>        -0.2166
      4 C4         -1.3235   -2.1542    0.0196 C.2       1 <0>         0.3916
      5 O1         -0.4587   -2.9850    0.1944 O.2       1 <0>        -0.4461
      6 C5         -2.8064   -2.4392   -0.2494 C.3       1 <0>        -0.1673
      7 C6         -3.2597   -1.1203   -0.8943 C.3       1 <0>        -0.0714
      8 C7         -2.5384   -0.1139    0.0257 C.3       1 <0>        -0.0187
      9 C8         -2.7322    1.2840   -0.5003 C.3       1 <0>        -0.1098
     10 C9         -4.2461    1.5876   -0.5242 C.3       1 <0>        -0.1114
     11 C10        -4.9803    0.5870   -1.3939 C.3       1 <0>        -0.0625
     12 C11        -4.7387   -0.8659   -1.0079 C.3       1 <0>        -0.0569
     13 C12        -5.5325   -1.3882    0.1676 C.3       1 <0>        -0.1112
     14 C13        -6.6462   -0.4330    0.5914 C.3       1 <0>        -0.0917
     15 C14        -7.2964    0.0768   -0.6712 C.2       1 <0>        -0.0164
     16 C15        -8.5621   -0.1982   -0.9542 C.2       1 <0>        -0.2413
     17 C16        -9.1718    0.2659   -2.1984 C.2       1 <0>         0.3883
     18 O2        -10.3674    0.1313   -2.3692 O.2       1 <0>        -0.4658
     19 C17        -8.3275    0.8927   -3.2767 C.3       1 <0>        -0.1678
     20 C18        -6.8502    0.5763   -3.0476 C.3       1 <0>        -0.1060
     21 C19        -6.4513    0.9087   -1.6053 C.3       1 <0>        -0.0279
     22 C20        -6.7360    2.3882   -1.3385 C.3       1 <0>        -0.1411
     23 C21        -3.0123   -0.1740    1.4775 C.3       1 <0>        -0.1457
     24 H1          1.0042    1.8801    0.0026 H         1 <0>         0.0660
     25 H2         -0.5455    1.8639   -0.8728 H         1 <0>         0.0828
     26 H3         -0.5286    1.8543    0.9071 H         1 <0>         0.0776
     27 H4          0.9446   -0.5313   -0.0098 H         1 <0>         0.1217
     28 H5         -2.9066   -3.2622   -0.9626 H         1 <0>         0.0921
     29 H6         -3.3421   -2.6613    0.6635 H         1 <0>         0.1092
     30 H7         -2.8085   -1.0692   -1.9133 H         1 <0>         0.0792
     31 H8         -2.2297    2.0036    0.1489 H         1 <0>         0.0761
     32 H9         -2.3307    1.3648   -1.5120 H         1 <0>         0.0667
     33 H10        -4.6482    1.5968    0.4804 H         1 <0>         0.0703
     34 H11        -4.3348    2.5961   -0.9500 H         1 <0>         0.0666
     35 H12        -4.5209    0.6953   -2.4024 H         1 <0>         0.0650
     36 H13        -5.0894   -1.4674   -1.8924 H         1 <0>         0.0638
     37 H14        -6.0265   -2.3242   -0.1543 H         1 <0>         0.0582
     38 H15        -4.9214   -1.6451    1.0144 H         1 <0>         0.0786
     39 H16        -7.3775   -0.9710    1.1901 H         1 <0>         0.0776
     40 H17        -6.2288    0.3935    1.1574 H         1 <0>         0.0852
     41 H18        -9.1519   -0.7743   -0.2561 H         1 <0>         0.1308
     42 H19        -8.6324    0.4784   -4.2466 H         1 <0>         0.0955
     43 H20        -8.4927    1.9679   -3.3036 H         1 <0>         0.1037
     44 H21        -6.6706   -0.4848   -3.2319 H         1 <0>         0.0712
     45 H22        -6.2387    1.1655   -3.7335 H         1 <0>         0.0795
     46 H23        -6.1442    3.0005   -2.0189 H         1 <0>         0.0668
     47 H24        -7.7955    2.5887   -1.4976 H         1 <0>         0.0584
     48 H25        -6.4711    2.6292   -0.3091 H         1 <0>         0.0645
     49 H26        -2.3582    0.4378    2.0988 H         1 <0>         0.0582
     50 H27        -4.0327    0.2036    1.5425 H         1 <0>         0.0697
     51 H28        -2.9839   -1.2062    1.8265 H         1 <0>         0.0549
@<TRIPOS>BOND
     1    1    2 1
     2    1   24 1
     3    1   25 1
     4    1   26 1
     5    2    3 2
     6    2   27 1
     7    3    8 1
     8    3    4 1
     9    4    5 2
    10    4    6 1
    11    6    7 1
    12    6   28 1
    13    6   29 1
    14    7   12 1
    15    7    8 1
    16    7   30 1
    17    8    9 1
    18    8   23 1
    19    9   10 1
    20    9   31 1
    21    9   32 1
    22   10   11 1
    23   10   33 1
    24   10   34 1
    25   11   21 1
    26   11   12 1
    27   11   35 1
    28   12   13 1
    29   12   36 1
    30   13   14 1
    31   13   37 1
    32   13   38 1
    33   14   15 1
    34   14   39 1
    35   14   40 1
    36   15   21 1
    37   15   16 2
    38   16   17 1
    39   16   41 1
    40   17   18 2
    41   17   19 1
    42   19   20 1
    43   19   42 1
    44   19   43 1
    45   20   21 1
    46   20   44 1
    47   20   45 1
    48   21   22 1
    49   22   46 1
    50   22   47 1
    51   22   48 1
    52   23   49 1
    53   23   50 1
    54   23   51 1
@<TRIPOS>MOLECULE
CHEMBL197846__3
   51    54     0     0     0
SMALL
USER_CHARGES

@<TRIPOS>ATOM
      1 C1          0.2239    1.0381    0.1347 C.3       1 <0>        -0.1408
      2 C2         -0.0173   -0.4462    0.0365 C.2       1 <0>        -0.0518
      3 C3         -1.2649   -0.9179   -0.0097 C.2       1 <0>        -0.2129
      4 C4         -1.6718   -2.3380   -0.0994 C.2       1 <0>         0.3919
      5 O1         -0.9297   -3.2977   -0.0868 O.2       1 <0>        -0.4480
      6 C5         -3.1966   -2.3773   -0.2104 C.3       1 <0>        -0.1656
      7 C6         -3.5250   -0.9938   -0.7852 C.3       1 <0>        -0.0776
      8 C7         -2.5288   -0.1143    0.0256 C.3       1 <0>        -0.0247
      9 C8         -2.5075    1.2524   -0.6272 C.3       1 <0>        -0.1130
     10 C9         -3.9066    1.8622   -0.4421 C.3       1 <0>        -0.1236
     11 C10        -4.9960    0.9695   -1.0283 C.3       1 <0>        -0.0678
     12 C11        -4.9171   -0.4656   -0.4912 C.3       1 <0>        -0.0774
     13 C12        -5.9595   -1.3308   -1.2058 C.3       1 <0>        -0.1145
     14 C13        -7.3600   -0.8288   -0.8481 C.3       1 <0>        -0.0973
     15 C14        -7.4525    0.6476   -1.1878 C.2       1 <0>        -0.0196
     16 C15        -8.5109    1.0576   -1.8866 C.2       1 <0>        -0.2415
     17 C16        -8.6598    2.4761   -2.2294 C.2       1 <0>         0.3877
     18 O2         -9.3603    2.8405   -3.1506 O.2       1 <0>        -0.4574
     19 C17        -7.8915    3.4628   -1.3720 C.3       1 <0>        -0.1682
     20 C18        -6.4480    2.9685   -1.2887 C.3       1 <0>        -0.1055
     21 C19        -6.3687    1.5670   -0.6956 C.3       1 <0>        -0.0270
     22 C20        -6.4769    1.6805    0.8264 C.3       1 <0>        -0.1495
     23 C21        -3.0139    0.0195    1.4705 C.3       1 <0>        -0.1489
     24 H1          1.2964    1.2310    0.1608 H         1 <0>         0.0670
     25 H2         -0.2137    1.5354   -0.7309 H         1 <0>         0.0852
     26 H3         -0.2364    1.4215    1.0453 H         1 <0>         0.0776
     27 H4          0.8195   -1.1283    0.0035 H         1 <0>         0.1231
     28 H5         -3.5147   -3.1654   -0.8930 H         1 <0>         0.0932
     29 H6         -3.6528   -2.5068    0.7711 H         1 <0>         0.1063
     30 H7         -3.3162   -0.9586   -1.8544 H         1 <0>         0.0859
     31 H8         -1.7604    1.8829   -0.1452 H         1 <0>         0.0800
     32 H9         -2.2827    1.1536   -1.6892 H         1 <0>         0.0665
     33 H10        -4.0956    2.0007    0.6225 H         1 <0>         0.0763
     34 H11        -3.9390    2.8332   -0.9363 H         1 <0>         0.0673
     35 H12        -4.8791    0.9333   -2.1114 H         1 <0>         0.0716
     36 H13        -5.0953   -0.4613    0.5842 H         1 <0>         0.0904
     37 H14        -5.8124   -1.2624   -2.2837 H         1 <0>         0.0673
     38 H15        -5.8520   -2.3678   -0.8877 H         1 <0>         0.0729
     39 H16        -8.1038   -1.3828   -1.4207 H         1 <0>         0.0778
     40 H17        -7.5374   -0.9702    0.2180 H         1 <0>         0.0846
     41 H18        -9.2591    0.3450   -2.2009 H         1 <0>         0.1337
     42 H19        -7.9187    4.4515   -1.8301 H         1 <0>         0.0922
     43 H20        -8.3272    3.5040   -0.3737 H         1 <0>         0.0998
     44 H21        -6.0137    2.9694   -2.2885 H         1 <0>         0.0700
     45 H22        -5.8765    3.6454   -0.6538 H         1 <0>         0.0827
     46 H23        -5.6835    2.3279    1.1998 H         1 <0>         0.0704
     47 H24        -7.4459    2.1036    1.0912 H         1 <0>         0.0590
     48 H25        -6.3784    0.6908    1.2724 H         1 <0>         0.0641
     49 H26        -2.2957    0.6075    2.0419 H         1 <0>         0.0575
     50 H27        -3.9834    0.5176    1.4836 H         1 <0>         0.0752
     51 H28        -3.1083   -0.9711    1.9153 H         1 <0>         0.0551
@<TRIPOS>BOND
     1    1    2 1
     2    1   24 1
     3    1   25 1
     4    1   26 1
     5    2    3 2
     6    2   27 1
     7    3    8 1
     8    3    4 1
     9    4    5 2
    10    4    6 1
    11    6    7 1
    12    6   28 1
    13    6   29 1
    14    7   12 1
    15    7    8 1
    16    7   30 1
    17    8    9 1
    18    8   23 1
    19    9   10 1
    20    9   31 1
    21    9   32 1
    22   10   11 1
    23   10   33 1
    24   10   34 1
    25   11   21 1
    26   11   12 1
    27   11   35 1
    28   12   13 1
    29   12   36 1
    30   13   14 1
    31   13   37 1
    32   13   38 1
    33   14   15 1
    34   14   39 1
    35   14   40 1
    36   15   21 1
    37   15   16 2
    38   16   17 1
    39   16   41 1
    40   17   18 2
    41   17   19 1
    42   19   20 1
    43   19   42 1
    44   19   43 1
    45   20   21 1
    46   20   44 1
    47   20   45 1
    48   21   22 1
    49   22   46 1
    50   22   47 1
    51   22   48 1
    52   23   49 1
    53   23   50 1
    54   23   51 1
@<TRIPOS>MOLECULE
CHEMBL197846__4
   51    54     0     0     0
SMALL
USER_CHARGES

@<TRIPOS>ATOM
      1 C1         -0.0246    1.5012   -0.0655 C.3       1 <0>        -0.1446
      2 C2          0.0021   -0.0041    0.0020 C.2       1 <0>        -0.0544
      3 C3         -1.1391   -0.6875    0.1100 C.2       1 <0>        -0.2099
      4 C4         -1.2758   -2.1486    0.2273 C.2       1 <0>         0.3914
      5 O1         -0.3671   -2.9522    0.2499 O.2       1 <0>        -0.4493
      6 C5         -2.7589   -2.4704    0.3158 C.3       1 <0>        -0.1793
      7 C6         -3.4398   -1.2428   -0.3640 C.3       1 <0>        -0.0666
      8 C7         -2.5319   -0.1075    0.1414 C.3       1 <0>        -0.0143
      9 C8         -2.6654    1.1555   -0.6784 C.3       1 <0>        -0.1299
     10 C9         -2.4175    0.8611   -2.1551 C.3       1 <0>        -0.1227
     11 C10        -3.4599   -0.1550   -2.6457 C.3       1 <0>        -0.0606
     12 C11        -3.3072   -1.4638   -1.8760 C.3       1 <0>        -0.0737
     13 C12        -4.3463   -2.5092   -2.2733 C.3       1 <0>        -0.1126
     14 C13        -4.7533   -2.4084   -3.7357 C.3       1 <0>        -0.0946
     15 C14        -3.6303   -1.7843   -4.5258 C.2       1 <0>        -0.0167
     16 C15        -3.0553   -2.4462   -5.5247 C.2       1 <0>        -0.2412
     17 C16        -1.9577   -1.8539   -6.2868 C.2       1 <0>         0.3870
     18 O2         -1.4612   -2.4645   -7.2102 O.2       1 <0>        -0.4642
     19 C17        -1.4424   -0.4834   -5.9246 C.3       1 <0>        -0.1707
     20 C18        -1.6932   -0.2367   -4.4329 C.3       1 <0>        -0.1086
     21 C19        -3.1995   -0.3753   -4.1416 C.3       1 <0>        -0.0341
     22 C20        -3.9876    0.6546   -4.9534 C.3       1 <0>        -0.1393
     23 C21        -2.9004    0.2204    1.5897 C.3       1 <0>        -0.1431
     24 H1         -0.5744    1.8936    0.7899 H         1 <0>         0.0784
     25 H2          0.9959    1.8838   -0.0481 H         1 <0>         0.0662
     26 H3         -0.5146    1.8149   -0.9873 H         1 <0>         0.0910
     27 H4          0.9447   -0.5297   -0.0369 H         1 <0>         0.1230
     28 H5         -2.9860   -3.3862   -0.2299 H         1 <0>         0.0950
     29 H6         -3.0716   -2.5551    1.3565 H         1 <0>         0.1045
     30 H7         -4.4783   -1.1189   -0.0568 H         1 <0>         0.0987
     31 H8         -3.6699    1.5605   -0.5554 H         1 <0>         0.0680
     32 H9         -1.9388    1.8896   -0.3303 H         1 <0>         0.0879
     33 H10        -2.5073    1.7824   -2.7306 H         1 <0>         0.0690
     34 H11        -1.4171    0.4470   -2.2813 H         1 <0>         0.0727
     35 H12        -4.4615    0.2513   -2.5048 H         1 <0>         0.0817
     36 H13        -2.3195   -1.8785   -2.0775 H         1 <0>         0.0677
     37 H14        -3.9343   -3.5017   -2.0904 H         1 <0>         0.0657
     38 H15        -5.2321   -2.3784   -1.6518 H         1 <0>         0.0713
     39 H16        -4.9615   -3.4052   -4.1247 H         1 <0>         0.0766
     40 H17        -5.6466   -1.7899   -3.8227 H         1 <0>         0.0842
     41 H18        -3.4041   -3.4367   -5.7768 H         1 <0>         0.1305
     42 H19        -0.3730   -0.4298   -6.1286 H         1 <0>         0.0949
     43 H20        -1.9660    0.2706   -6.5123 H         1 <0>         0.1035
     44 H21        -1.1307   -0.9608   -3.8435 H         1 <0>         0.0713
     45 H22        -1.3775    0.7733   -4.1718 H         1 <0>         0.0844
     46 H23        -3.6695    1.6587   -4.6732 H         1 <0>         0.0675
     47 H24        -3.8027    0.4982   -6.0162 H         1 <0>         0.0596
     48 H25        -5.0523    0.5405   -4.7493 H         1 <0>         0.0620
     49 H26        -2.2064    0.9638    1.9818 H         1 <0>         0.0584
     50 H27        -3.9154    0.6163    1.6256 H         1 <0>         0.0627
     51 H28        -2.8421   -0.6852    2.1934 H         1 <0>         0.0559
@<TRIPOS>BOND
     1    1    2 1
     2    1   24 1
     3    1   25 1
     4    1   26 1
     5    2    3 2
     6    2   27 1
     7    3    8 1
     8    3    4 1
     9    4    5 2
    10    4    6 1
    11    6    7 1
    12    6   28 1
    13    6   29 1
    14    7   12 1
    15    7    8 1
    16    7   30 1
    17    8    9 1
    18    8   23 1
    19    9   10 1
    20    9   31 1
    21    9   32 1
    22   10   11 1
    23   10   33 1
    24   10   34 1
    25   11   21 1
    26   11   12 1
    27   11   35 1
    28   12   13 1
    29   12   36 1
    30   13   14 1
    31   13   37 1
    32   13   38 1
    33   14   15 1
    34   14   39 1
    35   14   40 1
    36   15   21 1
    37   15   16 2
    38   16   17 1
    39   16   41 1
    40   17   18 2
    41   17   19 1
    42   19   20 1
    43   19   42 1
    44   19   43 1
    45   20   21 1
    46   20   44 1
    47   20   45 1
    48   21   22 1
    49   22   46 1
    50   22   47 1
    51   22   48 1
    52   23   49 1
    53   23   50 1
    54   23   51 1
@<TRIPOS>MOLECULE
CHEMBL197846__5
   51    54     0     0     0
SMALL
USER_CHARGES

@<TRIPOS>ATOM
      1 C1         -0.0260    1.4999   -0.0887 C.3       1 <0>        -0.1437
      2 C2          0.0021   -0.0041    0.0020 C.2       1 <0>        -0.0657
      3 C3         -1.1391   -0.6875    0.1100 C.2       1 <0>        -0.2043
      4 C4         -1.2745   -2.1483    0.2272 C.2       1 <0>         0.4034
      5 O1         -0.3650   -2.9511    0.2487 O.2       1 <0>        -0.4572
      6 C5         -2.7569   -2.4719    0.3175 C.3       1 <0>        -0.1795
      7 C6         -3.4411   -1.2466   -0.3610 C.3       1 <0>        -0.0680
      8 C7         -2.5314   -0.1063    0.1413 C.3       1 <0>        -0.0148
      9 C8         -2.6597    1.1626   -0.6675 C.3       1 <0>        -0.1315
     10 C9         -2.4768    0.8953   -2.1617 C.3       1 <0>        -0.1271
     11 C10        -3.5400   -0.1176   -2.6001 C.3       1 <0>        -0.0632
     12 C11        -3.2802   -1.4429   -1.8718 C.3       1 <0>        -0.0776
     13 C12        -1.8563   -1.9247   -2.1656 C.3       1 <0>        -0.1472
     14 C13        -1.7349   -2.2494   -3.6563 C.3       1 <0>        -0.0940
     15 C14        -2.1472   -1.0290   -4.4588 C.2       1 <0>        -0.0149
     16 C15        -1.3371   -0.6271   -5.4377 C.2       1 <0>        -0.2461
     17 C16        -1.6937    0.5379   -6.2545 C.2       1 <0>         0.3889
     18 O2         -0.8590    1.1619   -6.8757 O.2       1 <0>        -0.4580
     19 C17        -3.1604    0.9210   -6.2818 C.3       1 <0>        -0.1663
     20 C18        -3.6457    0.9758   -4.8339 C.3       1 <0>        -0.1111
     21 C19        -3.4497   -0.3301   -4.1141 C.3       1 <0>        -0.0267
     22 C20        -4.5962   -1.2542   -4.5296 C.3       1 <0>        -0.1474
     23 C21        -2.8959    0.2108    1.5930 C.3       1 <0>        -0.1437
     24 H1         -0.5843    1.9045    0.7555 H         1 <0>         0.0787
     25 H2          0.9937    1.8843   -0.0677 H         1 <0>         0.0662
     26 H3         -0.5078    1.7988   -1.0197 H         1 <0>         0.0897
     27 H4          0.9457   -0.5289   -0.0203 H         1 <0>         0.1235
     28 H5         -2.9833   -3.3882   -0.2277 H         1 <0>         0.0951
     29 H6         -3.0681   -2.5571    1.3586 H         1 <0>         0.1031
     30 H7         -4.4832   -1.1261   -0.0649 H         1 <0>         0.1010
     31 H8         -3.6472    1.5930   -0.5008 H         1 <0>         0.0677
     32 H9         -1.9022    1.8735   -0.3374 H         1 <0>         0.0905
     33 H10        -2.6012    1.8236   -2.7193 H         1 <0>         0.0702
     34 H11        -1.4827    0.4869   -2.3433 H         1 <0>         0.0711
     35 H12        -4.5300    0.2593   -2.3435 H         1 <0>         0.0838
     36 H13        -3.9904   -2.1944   -2.2167 H         1 <0>         0.0813
     37 H14        -1.1453   -1.1410   -1.9043 H         1 <0>         0.0894
     38 H15        -1.6461   -2.8192   -1.5794 H         1 <0>         0.0781
     39 H16        -0.7025   -2.5090   -3.8906 H         1 <0>         0.0768
     40 H17        -2.3886   -3.0862   -3.9023 H         1 <0>         0.0839
     41 H18        -0.4171   -1.1595   -5.6295 H         1 <0>         0.1327
     42 H19        -3.2794    1.8983   -6.7497 H         1 <0>         0.0927
     43 H20        -3.7284    0.1729   -6.8349 H         1 <0>         0.0992
     44 H21        -3.0961    1.7538   -4.3041 H         1 <0>         0.0750
     45 H22        -4.7073    1.2229   -4.8240 H         1 <0>         0.0819
     46 H23        -5.5482   -0.7912   -4.2701 H         1 <0>         0.0652
     47 H24        -4.5554   -1.4225   -5.6057 H         1 <0>         0.0588
     48 H25        -4.5017   -2.2071   -4.0089 H         1 <0>         0.0625
     49 H26        -2.1997    0.9500    1.9892 H         1 <0>         0.0582
     50 H27        -3.9101    0.6079    1.6345 H         1 <0>         0.0629
     51 H28        -2.8375   -0.6997    2.1894 H         1 <0>         0.0565
@<TRIPOS>BOND
     1    1    2 1
     2    1   24 1
     3    1   25 1
     4    1   26 1
     5    2    3 2
     6    2   27 1
     7    3    8 1
     8    3    4 1
     9    4    5 2
    10    4    6 1
    11    6    7 1
    12    6   28 1
    13    6   29 1
    14    7   12 1
    15    7    8 1
    16    7   30 1
    17    8    9 1
    18    8   23 1
    19    9   10 1
    20    9   31 1
    21    9   32 1
    22   10   11 1
    23   10   33 1
    24   10   34 1
    25   11   21 1
    26   11   12 1
    27   11   35 1
    28   12   13 1
    29   12   36 1
    30   13   14 1
    31   13   37 1
    32   13   38 1
    33   14   15 1
    34   14   39 1
    35   14   40 1
    36   15   21 1
    37   15   16 2
    38   16   17 1
    39   16   41 1
    40   17   18 2
    41   17   19 1
    42   19   20 1
    43   19   42 1
    44   19   43 1
    45   20   21 1
    46   20   44 1
    47   20   45 1
    48   21   22 1
    49   22   46 1
    50   22   47 1
    51   22   48 1
    52   23   49 1
    53   23   50 1
    54   23   51 1
@<TRIPOS>MOLECULE
CHEMBL197846__6
   51    54     0     0     0
SMALL
USER_CHARGES

@<TRIPOS>ATOM
      1 C1         -0.0215    1.5025   -0.0244 C.3       1 <0>        -0.1433
      2 C2          0.0021   -0.0041    0.0020 C.2       1 <0>        -0.0553
      3 C3         -1.1384   -0.6871    0.1099 C.2       1 <0>        -0.2091
      4 C4         -1.2637   -2.1503    0.2360 C.2       1 <0>         0.3915
      5 O1         -0.3456   -2.9359    0.3459 O.2       1 <0>        -0.4503
      6 C5         -2.7418   -2.5022    0.1984 C.3       1 <0>        -0.1811
      7 C6         -3.4107   -1.2556   -0.4520 C.3       1 <0>        -0.0652
      8 C7         -2.5375   -0.1300    0.1433 C.3       1 <0>        -0.0096
      9 C8         -2.7106    1.1910   -0.5547 C.3       1 <0>        -0.1358
     10 C9         -2.6424    1.1121   -2.0698 C.3       1 <0>        -0.1077
     11 C10        -3.4546   -0.0295   -2.6649 C.3       1 <0>        -0.0590
     12 C11        -3.1717   -1.3376   -1.9557 C.3       1 <0>        -0.0705
     13 C12        -3.9470   -2.4968   -2.5744 C.3       1 <0>        -0.1156
     14 C13        -5.4477   -2.2044   -2.5287 C.3       1 <0>        -0.0970
     15 C14        -5.6951   -0.9074   -3.2774 C.2       1 <0>        -0.0169
     16 C15        -6.5869   -0.9203   -4.2644 C.2       1 <0>        -0.2432
     17 C16        -6.8749    0.2966   -5.0290 C.2       1 <0>         0.3877
     18 O2         -7.4353    0.2535   -6.1059 O.2       1 <0>        -0.4594
     19 C17        -6.4428    1.6113   -4.4122 C.3       1 <0>        -0.1673
     20 C18        -5.0208    1.4380   -3.8889 C.3       1 <0>        -0.1080
     21 C19        -4.9219    0.3125   -2.8608 C.3       1 <0>        -0.0169
     22 C20        -5.5598    0.8279   -1.5730 C.3       1 <0>        -0.1495
     23 C21        -2.9422    0.0552    1.6132 C.3       1 <0>        -0.1464
     24 H1         -0.5554    1.8729    0.8507 H         1 <0>         0.0788
     25 H2          1.0002    1.8821   -0.0142 H         1 <0>         0.0667
     26 H3         -0.5263    1.8422   -0.9288 H         1 <0>         0.0902
     27 H4          0.9425   -0.5307   -0.0664 H         1 <0>         0.1233
     28 H5         -2.9016   -3.3916   -0.4142 H         1 <0>         0.0969
     29 H6         -3.1260   -2.6752    1.2030 H         1 <0>         0.1049
     30 H7         -4.4601   -1.1610   -0.1833 H         1 <0>         0.1023
     31 H8         -3.6274    1.6715   -0.2238 H         1 <0>         0.0738
     32 H9         -1.8960    1.8588   -0.2175 H         1 <0>         0.0844
     33 H10        -2.9853    2.0655   -2.4956 H         1 <0>         0.0680
     34 H11        -1.5901    0.9960   -2.3739 H         1 <0>         0.0609
     35 H12        -3.0438   -0.1687   -3.7059 H         1 <0>         0.0602
     36 H13        -2.0941   -1.5608   -2.1004 H         1 <0>         0.0682
     37 H14        -3.6387   -2.6244   -3.6166 H         1 <0>         0.0667
     38 H15        -3.7391   -3.4201   -2.0345 H         1 <0>         0.0744
     39 H16        -5.9921   -3.0151   -3.0144 H         1 <0>         0.0766
     40 H17        -5.7773   -2.1104   -1.4967 H         1 <0>         0.0861
     41 H18        -7.1068   -1.8384   -4.5051 H         1 <0>         0.1324
     42 H19        -6.4605    2.3954   -5.1741 H         1 <0>         0.0917
     43 H20        -7.1186    1.8846   -3.6032 H         1 <0>         0.1016
     44 H21        -4.3576    1.2056   -4.7213 H         1 <0>         0.0678
     45 H22        -4.6964    2.3659   -3.4197 H         1 <0>         0.0826
     46 H23        -5.0393    1.7275   -1.2445 H         1 <0>         0.0710
     47 H24        -6.6089    1.0611   -1.7553 H         1 <0>         0.0569
     48 H25        -5.4867    0.0630   -0.7999 H         1 <0>         0.0652
     49 H26        -2.2668    0.7661    2.0892 H         1 <0>         0.0573
     50 H27        -3.9630    0.4340    1.6641 H         1 <0>         0.0627
     51 H28        -2.8841   -0.9029    2.1296 H         1 <0>         0.0563
@<TRIPOS>BOND
     1    1    2 1
     2    1   24 1
     3    1   25 1
     4    1   26 1
     5    2    3 2
     6    2   27 1
     7    3    8 1
     8    3    4 1
     9    4    5 2
    10    4    6 1
    11    6    7 1
    12    6   28 1
    13    6   29 1
    14    7   12 1
    15    7    8 1
    16    7   30 1
    17    8    9 1
    18    8   23 1
    19    9   10 1
    20    9   31 1
    21    9   32 1
    22   10   11 1
    23   10   33 1
    24   10   34 1
    25   11   21 1
    26   11   12 1
    27   11   35 1
    28   12   13 1
    29   12   36 1
    30   13   14 1
    31   13   37 1
    32   13   38 1
    33   14   15 1
    34   14   39 1
    35   14   40 1
    36   15   21 1
    37   15   16 2
    38   16   17 1
    39   16   41 1
    40   17   18 2
    41   17   19 1
    42   19   20 1
    43   19   42 1
    44   19   43 1
    45   20   21 1
    46   20   44 1
    47   20   45 1
    48   21   22 1
    49   22   46 1
    50   22   47 1
    51   22   48 1
    52   23   49 1
    53   23   50 1
    54   23   51 1
@<TRIPOS>MOLECULE
CHEMBL197846__7
   51    54     0     0     0
SMALL
USER_CHARGES

@<TRIPOS>ATOM
      1 C1          0.0461    1.3968    0.0992 C.3       1 <0>        -0.1413
      2 C2          0.0067   -0.1063    0.2005 C.2       1 <0>        -0.0507
      3 C3         -1.1658   -0.7435    0.2171 C.2       1 <0>        -0.2243
      4 C4         -1.3629   -2.1962    0.3180 C.2       1 <0>         0.3908
      5 O1         -0.4867   -3.0337    0.3709 O.2       1 <0>        -0.4498
      6 C5         -2.8610   -2.4643    0.3437 C.3       1 <0>        -0.1702
      7 C6         -3.4465   -1.1268    0.8367 C.3       1 <0>        -0.0669
      8 C7         -2.5479   -0.0939    0.1412 C.3       1 <0>        -0.0110
      9 C8         -2.8958    0.0070   -1.3462 C.3       1 <0>        -0.1056
     10 C9         -4.3836    0.2855   -1.5336 C.3       1 <0>        -0.1197
     11 C10        -5.1805   -0.8960   -0.9670 C.3       1 <0>        -0.0678
     12 C11        -4.9158   -0.9833    0.5249 C.3       1 <0>        -0.0714
     13 C12        -5.6894   -2.1670    1.1158 C.3       1 <0>        -0.1159
     14 C13        -7.1908   -1.9151    0.9644 C.3       1 <0>        -0.0973
     15 C14        -7.4948   -1.6592   -0.5005 C.2       1 <0>        -0.0194
     16 C15        -8.4953   -2.3421   -1.0557 C.2       1 <0>        -0.2407
     17 C16        -8.8405   -2.1216   -2.4643 C.2       1 <0>         0.3875
     18 O2         -9.4526   -2.9474   -3.1088 O.2       1 <0>        -0.4573
     19 C17        -8.3923   -0.8069   -3.0720 C.3       1 <0>        -0.1681
     20 C18        -6.9123   -0.6287   -2.7369 C.3       1 <0>        -0.1052
     21 C19        -6.6720   -0.6444   -1.2235 C.3       1 <0>        -0.0282
     22 C20        -7.0183    0.7406   -0.6734 C.3       1 <0>        -0.1479
     23 C21        -2.5864    1.2654    0.8423 C.3       1 <0>        -0.1470
     24 H1          1.0801    1.7273    0.0004 H         1 <0>         0.0658
     25 H2         -0.5227    1.7171   -0.7736 H         1 <0>         0.0778
     26 H3         -0.3905    1.8331    0.9976 H         1 <0>         0.0862
     27 H4          0.9274   -0.6678    0.2597 H         1 <0>         0.1232
     28 H5         -3.2273   -2.7001   -0.6554 H         1 <0>         0.1054
     29 H6         -3.0964   -3.2681    1.0412 H         1 <0>         0.0945
     30 H7         -3.2973   -1.0451    1.9133 H         1 <0>         0.0794
     31 H8         -2.3197    0.8157   -1.7957 H         1 <0>         0.0659
     32 H9         -2.6413   -0.9313   -1.8390 H         1 <0>         0.0624
     33 H10        -4.6546    1.1978   -1.0021 H         1 <0>         0.0748
     34 H11        -4.6034    0.3992   -2.5952 H         1 <0>         0.0696
     35 H12        -4.8731   -1.8174   -1.4615 H         1 <0>         0.0766
     36 H13        -5.2859   -0.0720    0.9946 H         1 <0>         0.0805
     37 H14        -5.4183   -3.0800    0.5856 H         1 <0>         0.0684
     38 H15        -5.4427   -2.2720    2.1723 H         1 <0>         0.0719
     39 H16        -7.7446   -2.7897    1.3055 H         1 <0>         0.0781
     40 H17        -7.4770   -1.0447    1.5548 H         1 <0>         0.0846
     41 H18        -9.0517   -3.0580   -0.4689 H         1 <0>         0.1338
     42 H19        -8.5266   -0.8338   -4.1533 H         1 <0>         0.0922
     43 H20        -8.9698    0.0137   -2.6465 H         1 <0>         0.0998
     44 H21        -6.3432   -1.4336   -3.2020 H         1 <0>         0.0693
     45 H22        -6.5695    0.3250   -3.1382 H         1 <0>         0.0831
     46 H23        -6.4164    1.4942   -1.1811 H         1 <0>         0.0707
     47 H24        -8.0754    0.9451   -0.8432 H         1 <0>         0.0578
     48 H25        -6.8100    0.7693    0.3962 H         1 <0>         0.0636
     49 H26        -2.0072    1.9876    0.2668 H         1 <0>         0.0718
     50 H27        -3.6191    1.6059    0.9184 H         1 <0>         0.0611
     51 H28        -2.1603    1.1713    1.8411 H         1 <0>         0.0590
@<TRIPOS>BOND
     1    1    2 1
     2    1   24 1
     3    1   25 1
     4    1   26 1
     5    2    3 2
     6    2   27 1
     7    3    8 1
     8    3    4 1
     9    4    5 2
    10    4    6 1
    11    6    7 1
    12    6   28 1
    13    6   29 1
    14    7   12 1
    15    7    8 1
    16    7   30 1
    17    8    9 1
    18    8   23 1
    19    9   10 1
    20    9   31 1
    21    9   32 1
    22   10   11 1
    23   10   33 1
    24   10   34 1
    25   11   21 1
    26   11   12 1
    27   11   35 1
    28   12   13 1
    29   12   36 1
    30   13   14 1
    31   13   37 1
    32   13   38 1
    33   14   15 1
    34   14   39 1
    35   14   40 1
    36   15   21 1
    37   15   16 2
    38   16   17 1
    39   16   41 1
    40   17   18 2
    41   17   19 1
    42   19   20 1
    43   19   42 1
    44   19   43 1
    45   20   21 1
    46   20   44 1
    47   20   45 1
    48   21   22 1
    49   22   46 1
    50   22   47 1
    51   22   48 1
    52   23   49 1
    53   23   50 1
    54   23   51 1
@<TRIPOS>MOLECULE
CHEMBL194802
   66    69     0     0     0
SMALL
USER_CHARGES

@<TRIPOS>ATOM
      1 C1         -0.0082    1.3039    0.3800 C.3       1 <0>        -0.1476
      2 C2          0.0776   -0.1907    0.0645 C.3       1 <0>        -0.0081
      3 C3          0.8891   -0.8959    1.1531 C.3       1 <0>        -0.1729
      4 C4         -1.3321   -0.7832    0.0146 C.3       1 <0>        -0.1341
      5 C5         -2.1966   -0.1344    1.0974 C.3       1 <0>         0.1365
      6 C6         -1.4991   -0.2644    2.4529 C.3       1 <0>        -0.1198
      7 C7         -2.4248    0.2551    3.5548 C.3       1 <0>        -0.0988
      8 C8         -2.5727    1.7722    3.4234 C.3       1 <0>        -0.1207
      9 C9         -3.4985    2.2917    4.5252 C.3       1 <0>        -0.1221
     10 C10        -2.9025    1.9540    5.8933 C.3       1 <0>        -0.1207
     11 C11        -2.7545    0.4369    6.0247 C.3       1 <0>        -0.1192
     12 C12        -1.8288   -0.0826    4.9229 C.3       1 <0>        -0.1143
     13 C13        -3.5348   -0.8252    1.1527 C.2       1 <0>         0.4939
     14 O1         -3.6416   -1.9717    0.7721 O.2       1 <0>        -0.5016
     15 N1         -4.6130   -0.1688    1.6253 N.am      1 <0>        -0.6655
     16 C14        -5.8237   -0.8413    1.7850 C.ar      1 <0>         0.1908
     17 C15        -5.8303   -2.1778    2.1731 C.ar      1 <0>        -0.1295
     18 C16        -7.0225   -2.8476    2.3326 C.ar      1 <0>        -0.0087
     19 C17        -8.2298   -2.1825    2.1038 C.ar      1 <0>        -0.2133
     20 C18        -8.2157   -0.8382    1.7136 C.ar      1 <0>        -0.0797
     21 C19        -7.0251   -0.1731    1.5614 C.ar      1 <0>        -0.1274
     22 C20        -9.6590   -0.4325    1.5541 C.3       1 <0>         0.0914
     23 O2        -10.4467   -1.5846    1.8661 O.3       1 <0>        -0.3144
     24 C21        -9.6366   -2.6075    2.1867 C.2       1 <0>         0.5230
     25 O3        -10.0106   -3.7204    2.4996 O.2       1 <0>        -0.4483
     26 O4         -2.3866    1.2482    0.7902 O.3       1 <0>        -0.5320
     27 C22         0.7515   -0.3847   -1.2694 C.ar      1 <0>        -0.0642
     28 C23         0.0784   -1.0144   -2.2988 C.ar      1 <0>        -0.1478
     29 C24         0.6970   -1.1923   -3.5244 C.ar      1 <0>         0.0947
     30 C25         1.9910   -0.7399   -3.7204 C.ar      1 <0>        -0.1433
     31 C26         2.6662   -0.1100   -2.6931 C.ar      1 <0>        -0.1133
     32 C27         2.0455    0.0740   -1.4662 C.ar      1 <0>         0.1024
     33 O5          2.7068    0.6988   -0.4560 O.3       1 <0>        -0.4869
     34 F1          0.0377   -1.8082   -4.5300 F         1 <0>        -0.1373
     35 H1          0.9971    1.7209    0.4402 H         1 <0>         0.0639
     36 H2         -0.5650    1.8103   -0.4085 H         1 <0>         0.0538
     37 H3         -0.5179    1.4454    1.3330 H         1 <0>         0.0893
     38 H4          0.3528   -0.8390    2.1004 H         1 <0>         0.0857
     39 H5          1.0331   -1.9411    0.8793 H         1 <0>         0.0560
     40 H6          1.8594   -0.4101    1.2553 H         1 <0>         0.0630
     41 H7         -1.7720   -0.5925   -0.9643 H         1 <0>         0.0787
     42 H8         -1.2806   -1.8583    0.1866 H         1 <0>         0.0916
     43 H9         -1.2626   -1.3118    2.6409 H         1 <0>         0.0867
     44 H10        -0.5791    0.3201    2.4457 H         1 <0>         0.1131
     45 H11        -3.4035   -0.2151    3.4588 H         1 <0>         0.0712
     46 H12        -1.5941    2.2424    3.5194 H         1 <0>         0.0635
     47 H13        -2.9973    2.0128    2.4487 H         1 <0>         0.0881
     48 H14        -3.6039    3.3725    4.4316 H         1 <0>         0.0616
     49 H15        -4.4771    1.8215    4.4292 H         1 <0>         0.0556
     50 H16        -1.9238    2.4242    5.9894 H         1 <0>         0.0617
     51 H17        -3.5620    2.3241    6.6783 H         1 <0>         0.0588
     52 H18        -2.3299    0.1963    6.9994 H         1 <0>         0.0613
     53 H19        -3.7332   -0.0333    5.9287 H         1 <0>         0.0589
     54 H20        -1.7234   -1.1635    5.0165 H         1 <0>         0.0598
     55 H21        -0.8501    0.3875    5.0189 H         1 <0>         0.0644
     56 H22        -4.5465    0.7714    1.8542 H         1 <0>         0.4206
     57 H23        -4.8968   -2.6915    2.3495 H         1 <0>         0.1462
     58 H24        -7.0245   -3.8848    2.6336 H         1 <0>         0.1419
     59 H25        -7.0195    0.8653    1.2649 H         1 <0>         0.1401
     60 H26        -9.8965    0.3792    2.2417 H         1 <0>         0.1188
     61 H27        -9.8470   -0.1190    0.5272 H         1 <0>         0.1184
     62 H28        -2.8246    1.4063   -0.0573 H         1 <0>         0.3762
     63 H29        -0.9306   -1.3683   -2.1470 H         1 <0>         0.1436
     64 H30         2.4727   -0.8800   -4.6769 H         1 <0>         0.1394
     65 H31         3.6756    0.2423   -2.8462 H         1 <0>         0.1394
     66 H32         3.2154    0.1017    0.1096 H         1 <0>         0.3874
@<TRIPOS>BOND
     1    1    2 1
     2    1   35 1
     3    1   36 1
     4    1   37 1
     5    2    3 1
     6    2    4 1
     7    2   27 1
     8    3   38 1
     9    3   39 1
    10    3   40 1
    11    4    5 1
    12    4   41 1
    13    4   42 1
    14    5    6 1
    15    5   13 1
    16    5   26 1
    17    6    7 1
    18    6   43 1
    19    6   44 1
    20    7   12 1
    21    7    8 1
    22    7   45 1
    23    8    9 1
    24    8   46 1
    25    8   47 1
    26    9   10 1
    27    9   48 1
    28    9   49 1
    29   10   11 1
    30   10   50 1
    31   10   51 1
    32   11   12 1
    33   11   52 1
    34   11   53 1
    35   12   54 1
    36   12   55 1
    37   13   14 2
    38   13   15 am
    39   15   16 1
    40   15   56 1
    41   16   21 ar
    42   16   17 ar
    43   17   18 ar
    44   17   57 1
    45   18   19 ar
    46   18   58 1
    47   19   24 1
    48   19   20 ar
    49   20   21 ar
    50   20   22 1
    51   21   59 1
    52   22   23 1
    53   22   60 1
    54   22   61 1
    55   23   24 1
    56   24   25 2
    57   26   62 1
    58   27   32 ar
    59   27   28 ar
    60   28   29 ar
    61   28   63 1
    62   29   30 ar
    63   29   34 1
    64   30   31 ar
    65   30   64 1
    66   31   32 ar
    67   31   65 1
    68   32   33 1
    69   33   66 1
@<TRIPOS>MOLECULE
CHEMBL194802__1
   66    69     0     0     0
SMALL
USER_CHARGES

@<TRIPOS>ATOM
      1 C1         -0.1861   -0.2190    2.2393 C.3       1 <0>        -0.1396
      2 C2         -0.5792   -1.3305    1.2642 C.3       1 <0>        -0.0206
      3 C3         -1.9157   -1.9380    1.6952 C.3       1 <0>        -0.1603
      4 C4         -0.7140   -0.7490   -0.1446 C.3       1 <0>        -0.1398
      5 C5         -1.8974    0.2199   -0.1852 C.3       1 <0>         0.1364
      6 C6         -1.8032    1.0875   -1.4419 C.3       1 <0>        -0.0981
      7 C7         -0.4373    1.7754   -1.4856 C.3       1 <0>        -0.0836
      8 C8         -0.3354    2.7803   -0.3364 C.3       1 <0>        -0.1206
      9 C9          1.0306    3.4682   -0.3801 C.3       1 <0>        -0.1211
     10 C10         1.1904    4.2006   -1.7138 C.3       1 <0>        -0.1215
     11 C11         1.0885    3.1956   -2.8630 C.3       1 <0>        -0.1190
     12 C12        -0.2774    2.5078   -2.8193 C.3       1 <0>        -0.1162
     13 C13        -3.1858   -0.5615   -0.2097 C.2       1 <0>         0.5013
     14 O1         -3.4765   -1.2212   -1.1849 O.2       1 <0>        -0.4994
     15 N1         -4.0150   -0.5271    0.8522 N.am      1 <0>        -0.6748
     16 C14        -5.1476   -1.3396    0.8788 C.ar      1 <0>         0.1887
     17 C15        -5.8430   -1.6011   -0.2981 C.ar      1 <0>        -0.1295
     18 C16        -6.9622   -2.4025   -0.2786 C.ar      1 <0>        -0.0101
     19 C17        -7.4010   -2.9551    0.9274 C.ar      1 <0>        -0.2115
     20 C18        -6.6966   -2.6879    2.1073 C.ar      1 <0>        -0.0813
     21 C19        -5.5784   -1.8930    2.0821 C.ar      1 <0>        -0.1266
     22 C20        -7.4222   -3.4242    3.2048 C.3       1 <0>         0.0917
     23 O2         -8.5284   -4.0910    2.5909 O.3       1 <0>        -0.3145
     24 C21        -8.5324   -3.8311    1.2726 C.2       1 <0>         0.5225
     25 O3         -9.3500   -4.2571    0.4813 O.2       1 <0>        -0.4474
     26 O4         -1.8690    1.0555    0.9737 O.3       1 <0>        -0.5372
     27 C22         0.4827   -2.3998    1.2668 C.ar      1 <0>        -0.0645
     28 C23         1.1600   -2.7040    0.1015 C.ar      1 <0>        -0.1427
     29 C24         2.1359   -3.6859    0.1036 C.ar      1 <0>         0.0971
     30 C25         2.4344   -4.3647    1.2731 C.ar      1 <0>        -0.1412
     31 C26         1.7589   -4.0626    2.4394 C.ar      1 <0>        -0.1121
     32 C27         0.7846   -3.0749    2.4400 C.ar      1 <0>         0.0997
     33 O5          0.1229   -2.7726    3.5884 O.3       1 <0>        -0.4864
     34 F1          2.7974   -3.9824   -1.0365 F         1 <0>        -0.1357
     35 H1          0.5270   -0.6085    2.9659 H         1 <0>         0.0690
     36 H2          0.2694    0.6036    1.6880 H         1 <0>         0.0736
     37 H3         -1.0747    0.1398    2.7587 H         1 <0>         0.0582
     38 H4         -2.5659   -1.1512    2.0776 H         1 <0>         0.0629
     39 H5         -2.3900   -2.4172    0.8388 H         1 <0>         0.0626
     40 H6         -1.7431   -2.6784    2.4763 H         1 <0>         0.0646
     41 H7          0.2004   -0.2170   -0.4070 H         1 <0>         0.1019
     42 H8         -0.8814   -1.5571   -0.8567 H         1 <0>         0.0867
     43 H9         -1.9230    0.4610   -2.3258 H         1 <0>         0.0897
     44 H10        -2.5895    1.8421   -1.4222 H         1 <0>         0.0774
     45 H11         0.3494    1.0276   -1.3851 H         1 <0>         0.0754
     46 H12        -1.1220    3.5281   -0.4369 H         1 <0>         0.0569
     47 H13        -0.4492    2.2585    0.6138 H         1 <0>         0.0962
     48 H14         1.1032    4.1841    0.4386 H         1 <0>         0.0590
     49 H15         1.8173    2.7204   -0.2796 H         1 <0>         0.0577
     50 H16         0.4037    4.9484   -1.8143 H         1 <0>         0.0598
     51 H17         2.1636    4.6906   -1.7449 H         1 <0>         0.0580
     52 H18         1.2024    3.7174   -3.8132 H         1 <0>         0.0604
     53 H19         1.8752    2.4479   -2.7625 H         1 <0>         0.0604
     54 H20        -0.3500    1.7918   -3.6380 H         1 <0>         0.0609
     55 H21        -1.0641    3.2555   -2.9197 H         1 <0>         0.0621
     56 H22        -3.8238    0.0629    1.5980 H         1 <0>         0.4137
     57 H23        -5.5036   -1.1734   -1.2299 H         1 <0>         0.1539
     58 H24        -7.5000   -2.6034   -1.1934 H         1 <0>         0.1421
     59 H25        -5.0356   -1.6937    2.9943 H         1 <0>         0.1402
     60 H26        -6.7572   -4.1534    3.6676 H         1 <0>         0.1179
     61 H27        -7.7811   -2.7182    3.9537 H         1 <0>         0.1188
     62 H28        -2.1334    0.6069    1.7885 H         1 <0>         0.3674
     63 H29         0.9277   -2.1759   -0.8115 H         1 <0>         0.1433
     64 H30         3.1955   -5.1310    1.2731 H         1 <0>         0.1406
     65 H31         1.9916   -4.5924    3.3512 H         1 <0>         0.1404
     66 H32        -0.6800   -3.2930    3.7283 H         1 <0>         0.3861
@<TRIPOS>BOND
     1    1    2 1
     2    1   35 1
     3    1   36 1
     4    1   37 1
     5    2    3 1
     6    2    4 1
     7    2   27 1
     8    3   38 1
     9    3   39 1
    10    3   40 1
    11    4    5 1
    12    4   41 1
    13    4   42 1
    14    5    6 1
    15    5   13 1
    16    5   26 1
    17    6    7 1
    18    6   43 1
    19    6   44 1
    20    7   12 1
    21    7    8 1
    22    7   45 1
    23    8    9 1
    24    8   46 1
    25    8   47 1
    26    9   10 1
    27    9   48 1
    28    9   49 1
    29   10   11 1
    30   10   50 1
    31   10   51 1
    32   11   12 1
    33   11   52 1
    34   11   53 1
    35   12   54 1
    36   12   55 1
    37   13   14 2
    38   13   15 am
    39   15   16 1
    40   15   56 1
    41   16   21 ar
    42   16   17 ar
    43   17   18 ar
    44   17   57 1
    45   18   19 ar
    46   18   58 1
    47   19   24 1
    48   19   20 ar
    49   20   21 ar
    50   20   22 1
    51   21   59 1
    52   22   23 1
    53   22   60 1
    54   22   61 1
    55   23   24 1
    56   24   25 2
    57   26   62 1
    58   27   32 ar
    59   27   28 ar
    60   28   29 ar
    61   28   63 1
    62   29   30 ar
    63   29   34 1
    64   30   31 ar
    65   30   64 1
    66   31   32 ar
    67   31   65 1
    68   32   33 1
    69   33   66 1
@<TRIPOS>MOLECULE
CHEMBL363137
   65    68     0     0     0
SMALL
USER_CHARGES

@<TRIPOS>ATOM
      1 C1         -0.0645    1.2906    0.4461 C.3       1 <0>        -0.1447
      2 C2          0.0280   -0.1981    0.1053 C.3       1 <0>        -0.0160
      3 C3          0.8837   -0.9095    1.1554 C.3       1 <0>        -0.1677
      4 C4         -1.3757   -0.8068    0.0936 C.3       1 <0>        -0.1303
      5 C5         -2.2107   -0.1845    1.2145 C.3       1 <0>         0.1355
      6 C6         -1.4665   -0.3262    2.5438 C.3       1 <0>        -0.1196
      7 C7         -2.3607    0.1656    3.6837 C.3       1 <0>        -0.0989
      8 C8         -2.5307    1.6826    3.5804 C.3       1 <0>        -0.1206
      9 C9         -3.4249    2.1745    4.7204 C.3       1 <0>        -0.1220
     10 C10        -2.7792    1.8239    6.0625 C.3       1 <0>        -0.1207
     11 C11        -2.6091    0.3069    6.1658 C.3       1 <0>        -0.1192
     12 C12        -1.7150   -0.1849    5.0258 C.3       1 <0>        -0.1145
     13 C13        -3.5382   -0.8921    1.3041 C.2       1 <0>         0.4941
     14 O1         -3.6444   -2.0341    0.9098 O.2       1 <0>        -0.5016
     15 N1         -4.6074   -0.2559    1.8223 N.am      1 <0>        -0.6658
     16 C14        -5.8042   -0.9453    2.0122 C.ar      1 <0>         0.1911
     17 C15        -5.7823   -2.2874    2.3800 C.ar      1 <0>        -0.1296
     18 C16        -6.9606   -2.9738    2.5691 C.ar      1 <0>        -0.0086
     19 C17        -8.1826   -2.3199    2.3910 C.ar      1 <0>        -0.2135
     20 C18        -8.1971   -0.9700    2.0210 C.ar      1 <0>        -0.0797
     21 C19        -7.0201   -0.2884    1.8392 C.ar      1 <0>        -0.1276
     22 C20        -9.6495   -0.5794    1.9160 C.3       1 <0>         0.0914
     23 O2        -10.4130   -1.7454    2.2367 O.3       1 <0>        -0.3145
     24 C21        -9.5808   -2.7631    2.5144 C.2       1 <0>         0.5230
     25 O3         -9.9311   -3.8850    2.8228 O.2       1 <0>        -0.4484
     26 O4         -2.4270    1.2001    0.9348 O.3       1 <0>        -0.5331
     27 C22         0.6588   -0.3642   -1.2532 C.ar      1 <0>        -0.0676
     28 C23        -0.0417   -0.9871   -2.2691 C.ar      1 <0>        -0.1272
     29 C24         0.5369   -1.1395   -3.5152 C.ar      1 <0>        -0.1171
     30 C25         1.8160   -0.6685   -3.7456 C.ar      1 <0>        -0.1258
     31 C26         2.5162   -0.0447   -2.7299 C.ar      1 <0>        -0.1175
     32 C27         1.9359    0.1114   -1.4850 C.ar      1 <0>        -0.1143
     33 H1          0.9373    1.7191    0.4772 H         1 <0>         0.0445
     34 H2         -0.6548    1.8015   -0.3146 H         1 <0>         0.0578
     35 H3         -0.5418    1.4117    1.4185 H         1 <0>         0.0907
     36 H4          0.3809   -0.8692    2.1217 H         1 <0>         0.0814
     37 H5          1.0268   -1.9498    0.8633 H         1 <0>         0.0566
     38 H6          1.8528   -0.4162    1.2292 H         1 <0>         0.0585
     39 H7         -1.8504   -0.6069   -0.8670 H         1 <0>         0.0793
     40 H8         -1.3060   -1.8836    0.2474 H         1 <0>         0.0904
     41 H9         -1.2117   -1.3732    2.7077 H         1 <0>         0.0870
     42 H10        -0.5542    0.2696    2.5147 H         1 <0>         0.1123
     43 H11        -3.3364   -0.3150    3.6134 H         1 <0>         0.0713
     44 H12        -1.5550    2.1633    3.6507 H         1 <0>         0.0630
     45 H13        -2.9907    1.9324    2.6243 H         1 <0>         0.0882
     46 H14        -3.5460    3.2552    4.6467 H         1 <0>         0.0614
     47 H15        -4.4006    1.6938    4.6500 H         1 <0>         0.0557
     48 H16        -1.8035    2.3046    6.1328 H         1 <0>         0.0615
     49 H17        -3.4162    2.1743    6.8746 H         1 <0>         0.0588
     50 H18        -2.1492    0.0572    7.1219 H         1 <0>         0.0613
     51 H19        -3.5849   -0.1737    6.0955 H         1 <0>         0.0590
     52 H20        -1.5939   -1.2656    5.0995 H         1 <0>         0.0600
     53 H21        -0.7393    0.2958    5.0962 H         1 <0>         0.0642
     54 H22        -4.5442    0.6816    2.0631 H         1 <0>         0.4205
     55 H23        -4.8375   -2.7923    2.5172 H         1 <0>         0.1462
     56 H24        -6.9405   -4.0153    2.8542 H         1 <0>         0.1419
     57 H25        -7.0365    0.7543    1.5584 H         1 <0>         0.1401
     58 H26        -9.8732    0.2191    2.6235 H         1 <0>         0.1188
     59 H27        -9.8756   -0.2530    0.9009 H         1 <0>         0.1183
     60 H28        -2.8950    1.3653    0.1049 H         1 <0>         0.3762
     61 H29        -1.0410   -1.3551   -2.0891 H         1 <0>         0.1254
     62 H30        -0.0101   -1.6268   -4.3087 H         1 <0>         0.1202
     63 H31         2.2684   -0.7882   -4.7189 H         1 <0>         0.1200
     64 H32         3.5156    0.3230   -2.9098 H         1 <0>         0.1207
     65 H33         2.4816    0.6021   -0.6926 H         1 <0>         0.1201
@<TRIPOS>BOND
     1    1    2 1
     2    1   33 1
     3    1   34 1
     4    1   35 1
     5    2    3 1
     6    2    4 1
     7    2   27 1
     8    3   36 1
     9    3   37 1
    10    3   38 1
    11    4    5 1
    12    4   39 1
    13    4   40 1
    14    5    6 1
    15    5   13 1
    16    5   26 1
    17    6    7 1
    18    6   41 1
    19    6   42 1
    20    7   12 1
    21    7    8 1
    22    7   43 1
    23    8    9 1
    24    8   44 1
    25    8   45 1
    26    9   10 1
    27    9   46 1
    28    9   47 1
    29   10   11 1
    30   10   48 1
    31   10   49 1
    32   11   12 1
    33   11   50 1
    34   11   51 1
    35   12   52 1
    36   12   53 1
    37   13   14 2
    38   13   15 am
    39   15   16 1
    40   15   54 1
    41   16   21 ar
    42   16   17 ar
    43   17   18 ar
    44   17   55 1
    45   18   19 ar
    46   18   56 1
    47   19   24 1
    48   19   20 ar
    49   20   21 ar
    50   20   22 1
    51   21   57 1
    52   22   23 1
    53   22   58 1
    54   22   59 1
    55   23   24 1
    56   24   25 2
    57   26   60 1
    58   27   32 ar
    59   27   28 ar
    60   28   29 ar
    61   28   61 1
    62   29   30 ar
    63   29   62 1
    64   30   31 ar
    65   30   63 1
    66   31   32 ar
    67   31   64 1
    68   32   65 1
@<TRIPOS>MOLECULE
CHEMBL363137__1
   65    68     0     0     0
SMALL
USER_CHARGES

@<TRIPOS>ATOM
      1 C1         -0.1935   -0.2632    2.2397 C.3       1 <0>        -0.1442
      2 C2         -0.5894   -1.3565    1.2452 C.3       1 <0>        -0.0280
      3 C3         -1.9278   -1.9674    1.6651 C.3       1 <0>        -0.1613
      4 C4         -0.7218   -0.7502   -0.1532 C.3       1 <0>        -0.1356
      5 C5         -1.8985    0.2274   -0.1759 C.3       1 <0>         0.1353
      6 C6         -1.7994    1.1160   -1.4175 C.3       1 <0>        -0.0977
      7 C7         -0.4310    1.7997   -1.4474 C.3       1 <0>        -0.0833
      8 C8         -0.3295    2.7888   -0.2845 C.3       1 <0>        -0.1206
      9 C9          1.0389    3.4725   -0.3145 C.3       1 <0>        -0.1209
     10 C10         1.2056    4.2223   -1.6377 C.3       1 <0>        -0.1215
     11 C11         1.1041    3.2332   -2.8006 C.3       1 <0>        -0.1188
     12 C12        -0.2643    2.5495   -2.7707 C.3       1 <0>        -0.1163
     13 C13        -3.1923   -0.5445   -0.2126 C.2       1 <0>         0.5019
     14 O1         -3.4884   -1.1851   -1.1989 O.2       1 <0>        -0.5001
     15 N1         -4.0203   -0.5229    0.8506 N.am      1 <0>        -0.6745
     16 C14        -5.1605   -1.3249    0.8626 C.ar      1 <0>         0.1894
     17 C15        -5.8571   -1.5600   -0.3192 C.ar      1 <0>        -0.1299
     18 C16        -6.9838   -2.3510   -0.3142 C.ar      1 <0>        -0.0101
     19 C17        -7.4291   -2.9195    0.8821 C.ar      1 <0>        -0.2121
     20 C18        -6.7236   -2.6788    2.0669 C.ar      1 <0>        -0.0811
     21 C19        -5.5978   -1.8943    2.0560 C.ar      1 <0>        -0.1266
     22 C20        -7.4572   -3.4265    3.1513 C.3       1 <0>         0.0917
     23 O2         -8.5691   -4.0724    2.5252 O.3       1 <0>        -0.3145
     24 C21        -8.5692   -3.7904    1.2115 C.2       1 <0>         0.5228
     25 O3         -9.3900   -4.1953    0.4124 O.2       1 <0>        -0.4480
     26 O4         -1.8633    1.0425    0.9973 O.3       1 <0>        -0.5387
     27 C22         0.4694   -2.4288    1.2297 C.ar      1 <0>        -0.0680
     28 C23         1.1464   -2.7147    0.0589 C.ar      1 <0>        -0.1217
     29 C24         2.1177   -3.6982    0.0446 C.ar      1 <0>        -0.1157
     30 C25         2.4122   -4.3956    1.2012 C.ar      1 <0>        -0.1232
     31 C26         1.7358   -4.1091    2.3723 C.ar      1 <0>        -0.1169
     32 C27         0.7676   -3.1226    2.3875 C.ar      1 <0>        -0.1162
     33 H1          0.5203   -0.6666    2.9580 H         1 <0>         0.0590
     34 H2          0.2622    0.5687    1.7027 H         1 <0>         0.0777
     35 H3         -1.0808    0.0871    2.7668 H         1 <0>         0.0575
     36 H4         -2.5785   -1.1843    2.0542 H         1 <0>         0.0580
     37 H5         -2.3998   -2.4365    0.8018 H         1 <0>         0.0620
     38 H6         -1.7585   -2.7167    2.4384 H         1 <0>         0.0686
     39 H7          0.1959   -0.2201   -0.4079 H         1 <0>         0.1004
     40 H8         -0.8956   -1.5449   -0.8788 H         1 <0>         0.0862
     41 H9         -1.9200    0.5051   -2.3121 H         1 <0>         0.0894
     42 H10        -2.5831    1.8729   -1.3861 H         1 <0>         0.0766
     43 H11         0.3528    1.0480   -1.3545 H         1 <0>         0.0760
     44 H12        -1.1134    3.5405   -0.3774 H         1 <0>         0.0566
     45 H13        -0.4482    2.2546    0.6582 H         1 <0>         0.0960
     46 H14         1.1112    4.1771    0.5140 H         1 <0>         0.0587
     47 H15         1.8227    2.7208   -0.2216 H         1 <0>         0.0578
     48 H16         0.4217    4.9740   -1.7306 H         1 <0>         0.0598
     49 H17         2.1804    4.7094   -1.6590 H         1 <0>         0.0579
     50 H18         1.2228    3.7674   -3.7433 H         1 <0>         0.0602
     51 H19         1.8879    2.4815   -2.7077 H         1 <0>         0.0604
     52 H20        -0.3367    1.8449   -3.5991 H         1 <0>         0.0609
     53 H21        -1.0482    3.3012   -2.8635 H         1 <0>         0.0619
     54 H22        -3.8228    0.0507    1.6076 H         1 <0>         0.4134
     55 H23        -5.5127   -1.1201   -1.2434 H         1 <0>         0.1539
     56 H24        -7.5225   -2.5315   -1.2327 H         1 <0>         0.1421
     57 H25        -5.0542   -1.7154    2.9719 H         1 <0>         0.1398
     58 H26        -6.7997   -4.1696    3.6024 H         1 <0>         0.1180
     59 H27        -7.8103   -2.7297    3.9115 H         1 <0>         0.1187
     60 H28        -2.1217    0.5794    1.8059 H         1 <0>         0.3673
     61 H29         0.9163   -2.1698   -0.8448 H         1 <0>         0.1247
     62 H30         2.6461   -3.9221   -0.8703 H         1 <0>         0.1219
     63 H31         3.1705   -5.1645    1.1899 H         1 <0>         0.1211
     64 H32         1.9657   -4.6542    3.2758 H         1 <0>         0.1216
     65 H33         0.2418   -2.8961    3.3033 H         1 <0>         0.1207
@<TRIPOS>BOND
     1    1    2 1
     2    1   33 1
     3    1   34 1
     4    1   35 1
     5    2    3 1
     6    2    4 1
     7    2   27 1
     8    3   36 1
     9    3   37 1
    10    3   38 1
    11    4    5 1
    12    4   39 1
    13    4   40 1
    14    5    6 1
    15    5   13 1
    16    5   26 1
    17    6    7 1
    18    6   41 1
    19    6   42 1
    20    7   12 1
    21    7    8 1
    22    7   43 1
    23    8    9 1
    24    8   44 1
    25    8   45 1
    26    9   10 1
    27    9   46 1
    28    9   47 1
    29   10   11 1
    30   10   48 1
    31   10   49 1
    32   11   12 1
    33   11   50 1
    34   11   51 1
    35   12   52 1
    36   12   53 1
    37   13   14 2
    38   13   15 am
    39   15   16 1
    40   15   54 1
    41   16   21 ar
    42   16   17 ar
    43   17   18 ar
    44   17   55 1
    45   18   19 ar
    46   18   56 1
    47   19   24 1
    48   19   20 ar
    49   20   21 ar
    50   20   22 1
    51   21   57 1
    52   22   23 1
    53   22   58 1
    54   22   59 1
    55   23   24 1
    56   24   25 2
    57   26   60 1
    58   27   32 ar
    59   27   28 ar
    60   28   29 ar
    61   28   61 1
    62   29   30 ar
    63   29   62 1
    64   30   31 ar
    65   30   63 1
    66   31   32 ar
    67   31   64 1
    68   32   65 1
@<TRIPOS>MOLECULE
CHEMBL196374
   53    55     0     0     0
SMALL
USER_CHARGES

@<TRIPOS>ATOM
      1 C1         -1.9509    5.3576    0.4595 C.3       1 <0>        -0.1040
      2 C2         -1.4302    4.1028    1.1115 C.2       1 <0>         0.1573
      3 C3         -2.3329    2.9719    1.3747 C.ar      1 <0>        -0.0554
      4 C4         -3.6007    2.8764    0.8210 C.ar      1 <0>        -0.1015
      5 C5         -4.3949    1.7783    1.1252 C.ar      1 <0>         0.1726
      6 C6         -3.9291    0.7787    1.9783 C.ar      1 <0>        -0.1057
      7 C7         -2.6696    0.8599    2.5334 C.ar      1 <0>        -0.0259
      8 C8         -1.8624    1.9505    2.2357 C.ar      1 <0>        -0.1621
      9 C9         -0.5007    2.1129    2.7737 C.2       1 <0>         0.4866
     10 O1         -0.1693    1.6064    3.8287 O.2       1 <0>        -0.4333
     11 O2          0.3641    2.8499    2.0415 O.3       1 <0>        -0.1614
     12 N1         -0.1803    4.0060    1.4418 N.2       1 <0>        -0.2536
     13 N2         -5.6714    1.6747    0.5720 N.am      1 <0>        -0.6574
     14 C10        -6.1583    0.4676    0.2223 C.2       1 <0>         0.4903
     15 O3         -5.5170   -0.5353    0.4541 O.2       1 <0>        -0.4753
     16 C11        -7.4997    0.3641   -0.4568 C.3       1 <0>         0.0865
     17 C12        -8.0987   -1.0191   -0.1945 C.3       1 <0>        -0.1442
     18 C13        -9.5159   -1.0783   -0.7682 C.3       1 <0>        -0.0160
     19 C14       -10.3452   -2.0904    0.0246 C.3       1 <0>        -0.1360
     20 C15       -10.1650    0.3035   -0.6674 C.3       1 <0>        -0.1739
     21 C16        -9.4554   -1.5006   -2.2136 C.ar      1 <0>        -0.0457
     22 C17        -8.3420   -2.1630   -2.6941 C.ar      1 <0>        -0.1726
     23 C18        -8.2863   -2.5515   -4.0216 C.ar      1 <0>         0.1063
     24 C19        -9.3458   -2.2767   -4.8698 C.ar      1 <0>        -0.1500
     25 C20       -10.4600   -1.6146   -4.3921 C.ar      1 <0>        -0.1059
     26 C21       -10.5196   -1.2298   -3.0606 C.ar      1 <0>         0.0973
     27 O4        -11.6179   -0.5831   -2.5878 O.3       1 <0>        -0.4872
     28 F1         -7.1972   -3.1991   -4.4901 F         1 <0>        -0.1356
     29 C22        -7.3257    0.5672   -1.9632 C.3       1 <0>         0.4722
     30 F2         -6.4498   -0.4009   -2.4662 F         1 <0>        -0.1588
     31 F3         -8.5673    0.4468   -2.5965 F         1 <0>        -0.1434
     32 F4         -6.8007    1.8413   -2.2044 F         1 <0>        -0.1717
     33 O5         -8.3746    1.3682    0.0613 O.3       1 <0>        -0.5168
     34 H1         -1.1363    6.0727    0.3452 H         1 <0>         0.0949
     35 H2         -2.3611    5.1145   -0.5207 H         1 <0>         0.0999
     36 H3         -2.7322    5.7934    1.0823 H         1 <0>         0.0991
     37 H4         -3.9667    3.6479    0.1597 H         1 <0>         0.1523
     38 H5         -4.5609   -0.0669    2.2068 H         1 <0>         0.1553
     39 H6         -2.3140    0.0828    3.1938 H         1 <0>         0.1524
     40 H7         -6.2085    2.4714    0.4391 H         1 <0>         0.4249
     41 H8         -7.4811   -1.7792   -0.6728 H         1 <0>         0.1087
     42 H9         -8.1336   -1.2022    0.8795 H         1 <0>         0.1043
     43 H10       -10.4626   -1.7402    1.0501 H         1 <0>         0.0632
     44 H11       -11.3266   -2.1974   -0.4374 H         1 <0>         0.0710
     45 H12        -9.8372   -3.0548    0.0260 H         1 <0>         0.0572
     46 H13        -9.6650    0.9905   -1.3502 H         1 <0>         0.0870
     47 H14       -11.2194    0.2299   -0.9337 H         1 <0>         0.0741
     48 H15       -10.0730    0.6746    0.3533 H         1 <0>         0.0671
     49 H16        -7.5147   -2.3774   -2.0338 H         1 <0>         0.1441
     50 H17        -9.3008   -2.5797   -5.9055 H         1 <0>         0.1393
     51 H18       -11.2860   -1.4001   -5.0540 H         1 <0>         0.1394
     52 H19       -11.5700    0.3798   -2.6624 H         1 <0>         0.3893
     53 H20        -8.5307    1.3007    1.0132 H         1 <0>         0.4003
@<TRIPOS>BOND
     1    1    2 1
     2    1   34 1
     3    1   35 1
     4    1   36 1
     5    2   12 2
     6    2    3 1
     7    3    8 ar
     8    3    4 ar
     9    4    5 ar
    10    4   37 1
    11    5    6 ar
    12    5   13 1
    13    6    7 ar
    14    6   38 1
    15    7    8 ar
    16    7   39 1
    17    8    9 1
    18    9   10 2
    19    9   11 1
    20   11   12 1
    21   13   14 am
    22   13   40 1
    23   14   15 2
    24   14   16 1
    25   16   17 1
    26   16   29 1
    27   16   33 1
    28   17   18 1
    29   17   41 1
    30   17   42 1
    31   18   19 1
    32   18   20 1
    33   18   21 1
    34   19   43 1
    35   19   44 1
    36   19   45 1
    37   20   46 1
    38   20   47 1
    39   20   48 1
    40   21   26 ar
    41   21   22 ar
    42   22   23 ar
    43   22   49 1
    44   23   24 ar
    45   23   28 1
    46   24   25 ar
    47   24   50 1
    48   25   26 ar
    49   25   51 1
    50   26   27 1
    51   27   52 1
    52   29   30 1
    53   29   31 1
    54   29   32 1
    55   33   53 1
@<TRIPOS>MOLECULE
CHEMBL196374__1
   53    55     0     0     0
SMALL
USER_CHARGES

@<TRIPOS>ATOM
      1 C1         -2.2381   -1.0940   -8.1038 C.3       1 <0>        -0.1035
      2 C2         -1.5936   -1.7498   -6.9097 C.2       1 <0>         0.1573
      3 C3         -2.1819   -1.5980   -5.5703 C.ar      1 <0>        -0.0564
      4 C4         -3.4578   -1.0965   -5.3613 C.ar      1 <0>        -0.1016
      5 C5         -3.9380   -0.9782   -4.0634 C.ar      1 <0>         0.1727
      6 C6         -3.1507   -1.3571   -2.9769 C.ar      1 <0>        -0.1049
      7 C7         -1.8815   -1.8598   -3.1708 C.ar      1 <0>        -0.0256
      8 C8         -1.3888   -1.9872   -4.4633 C.ar      1 <0>        -0.1620
      9 C9         -0.0506   -2.5248   -4.7638 C.2       1 <0>         0.4863
     10 O1          0.8599   -2.4493   -3.9608 O.2       1 <0>        -0.4328
     11 O2          0.1196   -3.1062   -5.9722 O.3       1 <0>        -0.1617
     12 N1         -0.5175   -2.4583   -7.0525 N.2       1 <0>        -0.2541
     13 N2         -5.2206   -0.4749   -3.8447 N.am      1 <0>        -0.6568
     14 C10        -5.9783   -0.9715   -2.8467 C.2       1 <0>         0.4909
     15 O3         -5.5151   -1.7943   -2.0856 O.2       1 <0>        -0.4778
     16 C11        -7.4009   -0.5043   -2.6767 C.3       1 <0>         0.0864
     17 C12        -8.2093   -1.5838   -1.9541 C.3       1 <0>        -0.1402
     18 C13        -9.6787   -1.1627   -1.8891 C.3       1 <0>        -0.0203
     19 C14       -10.0618   -0.4464   -3.1857 C.3       1 <0>        -0.1527
     20 C15       -10.5573   -2.4029   -1.7129 C.3       1 <0>        -0.1361
     21 C16        -9.8835   -0.2320   -0.7217 C.ar      1 <0>        -0.0669
     22 C17        -9.0040   -0.2559    0.3438 C.ar      1 <0>        -0.1584
     23 C18        -9.1915    0.5992    1.4161 C.ar      1 <0>         0.0980
     24 C19       -10.2607    1.4792    1.4229 C.ar      1 <0>        -0.1442
     25 C20       -11.1414    1.5051    0.3592 C.ar      1 <0>        -0.1133
     26 C21       -10.9514    0.6527   -0.7188 C.ar      1 <0>         0.1076
     27 O4        -11.8143    0.6811   -1.7689 O.3       1 <0>        -0.4818
     28 F1         -8.3308    0.5749    2.4572 F         1 <0>        -0.1360
     29 C22        -7.4194    0.7844   -1.8522 C.3       1 <0>         0.4696
     30 F2         -6.5360    1.7113   -2.4158 F         1 <0>        -0.1748
     31 F3         -8.7133    1.3165   -1.8476 F         1 <0>        -0.1377
     32 F4         -7.0259    0.5037   -0.5394 F         1 <0>        -0.1573
     33 O5         -7.9776   -0.2568   -3.9606 O.3       1 <0>        -0.5147
     34 H1         -1.6622   -1.3249   -9.0000 H         1 <0>         0.0947
     35 H2         -3.2552   -1.4685   -8.2190 H         1 <0>         0.0995
     36 H3         -2.2629   -0.0144   -7.9560 H         1 <0>         0.0991
     37 H4         -4.0720   -0.8012   -6.1992 H         1 <0>         0.1524
     38 H5         -3.5384   -1.2556   -1.9741 H         1 <0>         0.1553
     39 H6         -1.2759   -2.1515   -2.3255 H         1 <0>         0.1524
     40 H7         -5.5671    0.2324   -4.4108 H         1 <0>         0.4253
     41 H8         -8.1247   -2.5253   -2.4967 H         1 <0>         0.1031
     42 H9         -7.8228   -1.7112   -0.9429 H         1 <0>         0.1070
     43 H10        -9.7161   -1.0299   -4.0390 H         1 <0>         0.0539
     44 H11       -11.1453   -0.3381   -3.2345 H         1 <0>         0.0714
     45 H12        -9.5969    0.5393   -3.2072 H         1 <0>         0.0918
     46 H13       -10.3454   -2.8642   -0.7484 H         1 <0>         0.0592
     47 H14       -11.6073   -2.1132   -1.7543 H         1 <0>         0.0623
     48 H15       -10.3451   -3.1148   -2.5106 H         1 <0>         0.0653
     49 H16        -8.1701   -0.9422    0.3400 H         1 <0>         0.1469
     50 H17       -10.4062    2.1453    2.2605 H         1 <0>         0.1389
     51 H18       -11.9754    2.1913    0.3649 H         1 <0>         0.1390
     52 H19       -12.5668    0.0810   -1.6760 H         1 <0>         0.3855
     53 H20        -7.9989   -1.0319   -4.5382 H         1 <0>         0.3995
@<TRIPOS>BOND
     1    1    2 1
     2    1   34 1
     3    1   35 1
     4    1   36 1
     5    2   12 2
     6    2    3 1
     7    3    8 ar
     8    3    4 ar
     9    4    5 ar
    10    4   37 1
    11    5    6 ar
    12    5   13 1
    13    6    7 ar
    14    6   38 1
    15    7    8 ar
    16    7   39 1
    17    8    9 1
    18    9   10 2
    19    9   11 1
    20   11   12 1
    21   13   14 am
    22   13   40 1
    23   14   15 2
    24   14   16 1
    25   16   17 1
    26   16   29 1
    27   16   33 1
    28   17   18 1
    29   17   41 1
    30   17   42 1
    31   18   19 1
    32   18   20 1
    33   18   21 1
    34   19   43 1
    35   19   44 1
    36   19   45 1
    37   20   46 1
    38   20   47 1
    39   20   48 1
    40   21   26 ar
    41   21   22 ar
    42   22   23 ar
    43   22   49 1
    44   23   24 ar
    45   23   28 1
    46   24   25 ar
    47   24   50 1
    48   25   26 ar
    49   25   51 1
    50   26   27 1
    51   27   52 1
    52   29   30 1
    53   29   31 1
    54   29   32 1
    55   33   53 1
@<TRIPOS>MOLECULE
CHEMBL397919
   60    64     0     0     0
SMALL
USER_CHARGES

@<TRIPOS>ATOM
      1 C1         -0.0184    1.5055    0.0103 C.3       1 <0>        -0.1191
      2 C2          0.0021   -0.0041    0.0020 C.2       1 <0>        -0.0585
      3 C3          0.0080   -0.5993   -1.1885 C.2       1 <0>        -0.1653
      4 C4         -0.0686   -2.0883   -1.3560 C.3       1 <0>         0.2143
      5 N1          0.3118   -2.7749   -0.1232 N.pl3     1 <0>        -0.7337
      6 C5          0.0809   -2.1970    1.1205 C.ar      1 <0>         0.2263
      7 C6          0.0245   -0.7901    1.2418 C.ar      1 <0>        -0.0625
      8 C7          0.0699   -0.2584    2.5228 C.ar      1 <0>        -0.0282
      9 C8         -0.3333   -1.0649    3.6362 C.ar      1 <0>        -0.0853
     10 C9         -0.3713   -2.4356    3.4752 C.ar      1 <0>        -0.0519
     11 C10        -0.1074   -2.9949    2.2355 C.ar      1 <0>        -0.1847
     12 C11        -0.6924   -0.3559    4.8816 C.ar      1 <0>        -0.0867
     13 C12        -0.6417    1.0505    4.9010 C.ar      1 <0>         0.1160
     14 C13        -0.9996    1.7514    6.0402 C.ar      1 <0>        -0.1205
     15 C14        -1.3820    1.0791    7.1843 C.ar      1 <0>        -0.1015
     16 C15        -1.4140   -0.3051    7.1899 C.ar      1 <0>         0.0699
     17 C16        -1.0729   -1.0249    6.0448 C.ar      1 <0>         0.1079
     18 O1         -1.1205   -2.3796    6.1175 O.3       1 <0>        -0.3258
     19 C17         0.0705   -3.0490    6.5366 C.3       1 <0>         0.0318
     20 O2         -1.7794   -0.9718    8.3178 O.3       1 <0>        -0.4876
     21 O3         -0.2180    1.7494    3.8106 O.3       1 <0>        -0.2362
     22 C18         0.5621    1.0617    2.9283 C.2       1 <0>         0.1104
     23 C19         1.7656    1.5526    2.5309 C.2       1 <0>        -0.0769
     24 C20         2.1821    2.8350    2.9579 C.2       1 <0>        -0.0690
     25 C21         3.3693    3.5242    2.6627 C.2       1 <0>        -0.0969
     26 C22         3.5317    4.7908    3.2194 C.2       1 <0>        -0.1324
     27 C23         2.5598    5.2979    4.0068 C.2       1 <0>        -0.1948
     28 S1          1.3324    4.0032    4.0064 S.3       1 <0>         0.1213
     29 C24         4.3993    2.9329    1.8014 C.2       1 <0>         0.1930
     30 N2          4.2223    1.7501    1.2959 N.2       1 <0>        -0.3433
     31 O4          5.2164    1.1794    0.4646 O.3       1 <0>        -0.4082
     32 C25         5.6628    3.6983    1.5035 C.3       1 <0>        -0.1465
     33 C26         0.8744   -2.5208   -2.4852 C.3       1 <0>        -0.1545
     34 C27        -1.5026   -2.4746   -1.7372 C.3       1 <0>        -0.1603
     35 H1          1.0042    1.8828    0.0026 H         1 <0>         0.0727
     36 H2         -0.5456    1.8665   -0.8727 H         1 <0>         0.0678
     37 H3         -0.5286    1.8570    0.9071 H         1 <0>         0.0672
     38 H4          0.0729    0.0236   -2.0764 H         1 <0>         0.1275
     39 H5          0.7386   -3.6550   -0.1707 H         1 <0>         0.4047
     40 H6         -0.5990   -3.1045    4.2892 H         1 <0>         0.1447
     41 H7         -0.0507   -4.0699    2.1406 H         1 <0>         0.1290
     42 H8         -0.9845    2.8322    6.0320 H         1 <0>         0.1445
     43 H9         -1.6514    1.6323    8.0733 H         1 <0>         0.1466
     44 H10        -0.1035   -4.1250    6.5514 H         1 <0>         0.0985
     45 H11         0.8789   -2.8212    5.8420 H         1 <0>         0.0485
     46 H12         0.3444   -2.7115    7.5362 H         1 <0>         0.0548
     47 H13        -2.7284   -1.1461    8.3816 H         1 <0>         0.3928
     48 H14         2.4038    0.9635    1.8891 H         1 <0>         0.1800
     49 H15         4.4273    5.3616    3.0231 H         1 <0>         0.1406
     50 H16         2.5304    6.2533    4.5094 H         1 <0>         0.1890
     51 H17         4.9954    0.2972    0.1360 H         1 <0>         0.4018
     52 H18         6.4158    3.4634    2.2558 H         1 <0>         0.0835
     53 H19         6.0339    3.4173    0.5179 H         1 <0>         0.0806
     54 H20         5.4526    4.7676    1.5213 H         1 <0>         0.0788
     55 H21         1.8958   -2.2338   -2.2355 H         1 <0>         0.0633
     56 H22         0.8208   -3.6024   -2.6091 H         1 <0>         0.0633
     57 H23         0.5768   -2.0335   -3.4137 H         1 <0>         0.0737
     58 H24        -1.7744   -1.9850   -2.6723 H         1 <0>         0.0672
     59 H25        -1.5671   -3.5556   -1.8609 H         1 <0>         0.0612
     60 H26        -2.1859   -2.1576   -0.9492 H         1 <0>         0.0572
@<TRIPOS>BOND
     1    1    2 1
     2    1   35 1
     3    1   36 1
     4    1   37 1
     5    2    7 1
     6    2    3 2
     7    3    4 1
     8    3   38 1
     9    4    5 1
    10    4   33 1
    11    4   34 1
    12    5    6 1
    13    5   39 1
    14    6   11 ar
    15    6    7 ar
    16    7    8 ar
    17    8   22 1
    18    8    9 ar
    19    9   10 ar
    20    9   12 1
    21   10   11 ar
    22   10   40 1
    23   11   41 1
    24   12   17 ar
    25   12   13 ar
    26   13   14 ar
    27   13   21 1
    28   14   15 ar
    29   14   42 1
    30   15   16 ar
    31   15   43 1
    32   16   17 ar
    33   16   20 1
    34   17   18 1
    35   18   19 1
    36   19   44 1
    37   19   45 1
    38   19   46 1
    39   20   47 1
    40   21   22 1
    41   22   23 2
    42   23   24 1
    43   23   48 1
    44   24   28 1
    45   24   25 2
    46   25   26 1
    47   25   29 1
    48   26   27 2
    49   26   49 1
    50   27   28 1
    51   27   50 1
    52   29   30 2
    53   29   32 1
    54   30   31 1
    55   31   51 1
    56   32   52 1
    57   32   53 1
    58   32   54 1
    59   33   55 1
    60   33   56 1
    61   33   57 1
    62   34   58 1
    63   34   59 1
    64   34   60 1
@<TRIPOS>MOLECULE
CHEMBL195021
   49    51     0     0     0
SMALL
USER_CHARGES

@<TRIPOS>ATOM
      1 C1          0.2021    0.1585    0.1279 C.3       1 <0>        -0.1321
      2 C2          0.0085   -1.3350   -0.1417 C.3       1 <0>        -0.0174
      3 C3          0.4738   -2.1374    1.0751 C.3       1 <0>        -0.1578
      4 C4         -1.4720   -1.6183   -0.4038 C.3       1 <0>        -0.1265
      5 C5         -2.3195   -0.9408    0.6749 C.3       1 <0>         0.1307
      6 C6         -1.8881   -1.4445    2.0537 C.3       1 <0>        -0.1515
      7 C7         -3.7732   -1.2700    0.4521 C.2       1 <0>         0.4902
      8 O1         -4.0817   -2.2818   -0.1411 O.2       1 <0>        -0.5009
      9 N1         -4.7303   -0.4399    0.9119 N.am      1 <0>        -0.6654
     10 C8         -6.0729   -0.8029    0.8157 C.ar      1 <0>         0.1911
     11 C9         -6.4379   -2.1434    0.8978 C.ar      1 <0>        -0.1334
     12 C10        -7.7620   -2.5085    0.8035 C.ar      1 <0>        -0.0078
     13 C11        -8.7424   -1.5290    0.6246 C.ar      1 <0>        -0.2151
     14 C12        -8.3679   -0.1826    0.5428 C.ar      1 <0>        -0.0794
     15 C13        -7.0475    0.1769    0.6431 C.ar      1 <0>        -0.1288
     16 C14        -9.6445    0.5970    0.3540 C.3       1 <0>         0.0916
     17 O2        -10.7100   -0.3569    0.3361 O.3       1 <0>        -0.3145
     18 C15       -10.2069   -1.5930    0.4915 C.2       1 <0>         0.5232
     19 O3        -10.8646   -2.6143    0.5185 O.2       1 <0>        -0.4485
     20 O4         -2.1357    0.4747    0.6059 O.3       1 <0>        -0.5412
     21 C16         0.8180   -1.7368   -1.3478 C.ar      1 <0>        -0.0693
     22 C17         0.1872   -2.2638   -2.4592 C.ar      1 <0>        -0.1253
     23 C18         0.9296   -2.6323   -3.5655 C.ar      1 <0>        -0.1171
     24 C19         2.3028   -2.4735   -3.5605 C.ar      1 <0>        -0.1253
     25 C20         2.9335   -1.9457   -2.4494 C.ar      1 <0>        -0.1176
     26 C21         2.1906   -1.5732   -1.3447 C.ar      1 <0>        -0.1155
     27 H1          1.2621    0.4047    0.0649 H         1 <0>         0.0464
     28 H2         -0.3497    0.7361   -0.6137 H         1 <0>         0.0549
     29 H3         -0.1681    0.3988    1.1245 H         1 <0>         0.0786
     30 H4          0.2049   -1.6038    1.9867 H         1 <0>         0.0752
     31 H5         -0.0077   -3.1153    1.0711 H         1 <0>         0.0591
     32 H6          1.5555   -2.2649    1.0343 H         1 <0>         0.0577
     33 H7         -1.7491   -1.2270   -1.3826 H         1 <0>         0.0757
     34 H8         -1.6459   -2.6941   -0.3800 H         1 <0>         0.0902
     35 H9         -1.1101   -0.7929    2.4515 H         1 <0>         0.0936
     36 H10        -2.7454   -1.4397    2.7269 H         1 <0>         0.0607
     37 H11        -1.5015   -2.4598    1.9650 H         1 <0>         0.0904
     38 H12        -4.4850    0.4100    1.3099 H         1 <0>         0.4216
     39 H13        -5.6797   -2.9001    1.0358 H         1 <0>         0.1491
     40 H14        -8.0423   -3.5495    0.8673 H         1 <0>         0.1424
     41 H15        -6.7641    1.2174    0.5842 H         1 <0>         0.1409
     42 H16        -9.7817    1.2940    1.1807 H         1 <0>         0.1190
     43 H17        -9.6139    1.1397   -0.5908 H         1 <0>         0.1185
     44 H18        -2.3895    0.8634   -0.2423 H         1 <0>         0.3810
     45 H19        -0.8857   -2.3878   -2.4631 H         1 <0>         0.1247
     46 H20         0.4369   -3.0447   -4.4336 H         1 <0>         0.1207
     47 H21         2.8829   -2.7621   -4.4245 H         1 <0>         0.1204
     48 H22         4.0064   -1.8220   -2.4453 H         1 <0>         0.1212
     49 H23         2.6829   -1.1574   -0.4781 H         1 <0>         0.1214
@<TRIPOS>BOND
     1    1    2 1
     2    1   27 1
     3    1   28 1
     4    1   29 1
     5    2    3 1
     6    2    4 1
     7    2   21 1
     8    3   30 1
     9    3   31 1
    10    3   32 1
    11    4    5 1
    12    4   33 1
    13    4   34 1
    14    5    6 1
    15    5    7 1
    16    5   20 1
    17    6   35 1
    18    6   36 1
    19    6   37 1
    20    7    8 2
    21    7    9 am
    22    9   10 1
    23    9   38 1
    24   10   15 ar
    25   10   11 ar
    26   11   12 ar
    27   11   39 1
    28   12   13 ar
    29   12   40 1
    30   13   18 1
    31   13   14 ar
    32   14   15 ar
    33   14   16 1
    34   15   41 1
    35   16   17 1
    36   16   42 1
    37   16   43 1
    38   17   18 1
    39   18   19 2
    40   20   44 1
    41   21   26 ar
    42   21   22 ar
    43   22   23 ar
    44   22   45 1
    45   23   24 ar
    46   23   46 1
    47   24   25 ar
    48   24   47 1
    49   25   26 ar
    50   25   48 1
    51   26   49 1
@<TRIPOS>MOLECULE
CHEMBL195021__1
   49    51     0     0     0
SMALL
USER_CHARGES

@<TRIPOS>ATOM
      1 C1         -1.6324    1.5440   -0.9053 C.3       1 <0>        -0.1646
      2 C2         -1.1400    0.0955   -0.9109 C.3       1 <0>        -0.0163
      3 C3          0.1441   -0.0098   -0.0856 C.3       1 <0>        -0.1382
      4 C4         -2.2127   -0.8102   -0.3027 C.3       1 <0>        -0.1262
      5 C5         -2.3439   -0.5125    1.1923 C.3       1 <0>         0.1303
      6 C6         -2.5871    0.9844    1.3948 C.3       1 <0>        -0.1555
      7 C7         -3.5029   -1.2909    1.7597 C.2       1 <0>         0.4907
      8 O1         -4.4135   -1.6359    1.0368 O.2       1 <0>        -0.5019
      9 N1         -3.5273   -1.6038    3.0704 N.am      1 <0>        -0.6649
     10 C8         -4.5768   -2.3627    3.5865 C.ar      1 <0>         0.1896
     11 C9         -5.1819   -3.3378    2.7991 C.ar      1 <0>        -0.1325
     12 C10        -6.2187   -4.0906    3.3028 C.ar      1 <0>        -0.0087
     13 C11        -6.6645   -3.8743    4.6093 C.ar      1 <0>        -0.2143
     14 C12        -6.0512   -2.8918    5.3955 C.ar      1 <0>        -0.0799
     15 C13        -5.0144   -2.1478    4.8911 C.ar      1 <0>        -0.1278
     16 C14        -6.7588   -2.9176    6.7266 C.3       1 <0>         0.0916
     17 O2         -7.7628   -3.9324    6.6388 O.3       1 <0>        -0.3145
     18 C15        -7.7232   -4.4972    5.4203 C.2       1 <0>         0.5232
     19 O3         -8.4542   -5.3915    5.0432 O.2       1 <0>        -0.4484
     20 O4         -1.1404   -0.8944    1.8615 O.3       1 <0>        -0.5409
     21 C16        -0.8630   -0.3356   -2.3281 C.ar      1 <0>        -0.0695
     22 C17        -1.5526   -1.4024   -2.8733 C.ar      1 <0>        -0.1247
     23 C18        -1.2986   -1.7978   -4.1733 C.ar      1 <0>        -0.1171
     24 C19        -0.3553   -1.1260   -4.9283 C.ar      1 <0>        -0.1253
     25 C20         0.3336   -0.0586   -4.3834 C.ar      1 <0>        -0.1177
     26 C21         0.0765    0.3395   -3.0848 C.ar      1 <0>        -0.1154
     27 H1         -1.0811    2.1181   -1.6501 H         1 <0>         0.0565
     28 H2         -2.6959    1.5671   -1.1430 H         1 <0>         0.0598
     29 H3         -1.4711    1.9789    0.0810 H         1 <0>         0.0814
     30 H4         -0.0140    0.4454    0.8921 H         1 <0>         0.0831
     31 H5          0.4097   -1.0593    0.0409 H         1 <0>         0.0528
     32 H6          0.9514    0.5096   -0.6020 H         1 <0>         0.0486
     33 H7         -3.1671   -0.6243   -0.7953 H         1 <0>         0.0911
     34 H8         -1.9291   -1.8534   -0.4419 H         1 <0>         0.0752
     35 H9         -3.1498    1.3788    0.5487 H         1 <0>         0.0932
     36 H10        -3.1545    1.1395    2.3124 H         1 <0>         0.0590
     37 H11        -1.6303    1.5014    1.4675 H         1 <0>         0.0964
     38 H12        -2.8147   -1.3009    3.6547 H         1 <0>         0.4216
     39 H13        -4.8372   -3.5043    1.7893 H         1 <0>         0.1500
     40 H14        -6.6866   -4.8463    2.6894 H         1 <0>         0.1423
     41 H15        -4.5413   -1.3943    5.5033 H         1 <0>         0.1408
     42 H16        -6.0520   -3.1599    7.5202 H         1 <0>         0.1190
     43 H17        -7.2221   -1.9504    6.9216 H         1 <0>         0.1186
     44 H18        -0.9233   -1.8327    1.7754 H         1 <0>         0.3817
     45 H19        -2.2895   -1.9272   -2.2835 H         1 <0>         0.1243
     46 H20        -1.8368   -2.6317   -4.5991 H         1 <0>         0.1208
     47 H21        -0.1564   -1.4354   -5.9437 H         1 <0>         0.1204
     48 H22         1.0708    0.4660   -4.9731 H         1 <0>         0.1211
     49 H23         0.6120    1.1757   -2.6603 H         1 <0>         0.1212
@<TRIPOS>BOND
     1    1    2 1
     2    1   27 1
     3    1   28 1
     4    1   29 1
     5    2    3 1
     6    2    4 1
     7    2   21 1
     8    3   30 1
     9    3   31 1
    10    3   32 1
    11    4    5 1
    12    4   33 1
    13    4   34 1
    14    5    6 1
    15    5    7 1
    16    5   20 1
    17    6   35 1
    18    6   36 1
    19    6   37 1
    20    7    8 2
    21    7    9 am
    22    9   10 1
    23    9   38 1
    24   10   15 ar
    25   10   11 ar
    26   11   12 ar
    27   11   39 1
    28   12   13 ar
    29   12   40 1
    30   13   18 1
    31   13   14 ar
    32   14   15 ar
    33   14   16 1
    34   15   41 1
    35   16   17 1
    36   16   42 1
    37   16   43 1
    38   17   18 1
    39   18   19 2
    40   20   44 1
    41   21   26 ar
    42   21   22 ar
    43   22   23 ar
    44   22   45 1
    45   23   24 ar
    46   23   46 1
    47   24   25 ar
    48   24   47 1
    49   25   26 ar
    50   25   48 1
    51   26   49 1
@<TRIPOS>MOLECULE
CHEMBL267231
   51    54     0     0     0
SMALL
USER_CHARGES

@<TRIPOS>ATOM
      1 C1         -0.0183    1.5001    0.0103 C.3       1 <0>        -0.1218
      2 C2          0.0021   -0.0041    0.0020 C.2       1 <0>        -0.0613
      3 C3         -0.1103   -0.5534   -1.2118 C.2       1 <0>        -0.1774
      4 C4         -0.0753   -2.0411   -1.4078 C.3       1 <0>         0.2115
      5 N1          0.7459   -2.6301   -0.3461 N.pl3     1 <0>        -0.7376
      6 C5          0.5751   -2.1780    0.9639 C.ar      1 <0>         0.2209
      7 C6          0.1299   -0.8524    1.1962 C.ar      1 <0>        -0.0842
      8 C7         -0.2044   -0.5012    2.4978 C.ar      1 <0>        -0.0531
      9 C8          0.0605   -1.4023    3.5476 C.ar      1 <0>        -0.0815
     10 C9          0.6803   -2.6213    3.3049 C.ar      1 <0>        -0.0446
     11 C10         0.9288   -3.0105    2.0073 C.ar      1 <0>        -0.1833
     12 C11        -0.3481   -1.0414    4.9273 C.ar      1 <0>        -0.1152
     13 C12        -0.5499    0.3190    5.2077 C.ar      1 <0>         0.1535
     14 C13        -0.9009    0.7276    6.4789 C.ar      1 <0>        -0.1631
     15 C14        -1.0621   -0.2103    7.4835 C.ar      1 <0>        -0.0514
     16 C15        -0.8801   -1.5525    7.2165 C.ar      1 <0>        -0.2182
     17 C16        -0.5324   -1.9759    5.9381 C.ar      1 <0>         0.1441
     18 O1         -0.4129   -3.3096    5.7057 O.3       1 <0>        -0.3144
     19 C17        -0.6231   -4.1831    6.8169 C.3       1 <0>         0.4101
     20 F1          0.3061   -3.8918    7.8214 F         1 <0>        -0.1965
     21 F2         -1.9185   -4.0026    7.3135 F         1 <0>        -0.1962
     22 O2         -0.3995    1.2074    4.1965 O.3       1 <0>        -0.3018
     23 C18        -0.8491    0.7980    2.8962 C.3       1 <0>         0.1415
     24 C19        -2.3706    0.6150    2.9402 C.3       1 <0>        -0.1188
     25 C20        -3.0283    1.9420    3.2184 C.2       1 <0>        -0.1508
     26 C21        -3.9453    2.4021    2.4039 C.2       1 <0>        -0.1882
     27 C22        -1.4932   -2.6094   -1.3386 C.3       1 <0>        -0.1571
     28 C23         0.5382   -2.3676   -2.7700 C.3       1 <0>        -0.1524
     29 H1          0.6464    1.8682    0.7918 H         1 <0>         0.0679
     30 H2          0.3169    1.8733   -0.9574 H         1 <0>         0.0722
     31 H3         -1.0331    1.8486    0.2025 H         1 <0>         0.0722
     32 H4         -0.2284    0.0976   -2.0645 H         1 <0>         0.1239
     33 H5          1.3962   -3.3209   -0.5496 H         1 <0>         0.4024
     34 H6          1.0029   -3.2526    4.1185 H         1 <0>         0.1341
     35 H7          1.3992   -3.9625    1.8030 H         1 <0>         0.1277
     36 H8         -1.0485    1.7763    6.6924 H         1 <0>         0.1378
     37 H9         -1.3302    0.1100    8.4783 H         1 <0>         0.1371
     38 H10        -1.0114   -2.2817    8.0032 H         1 <0>         0.1385
     39 H11        -0.4982   -5.2170    6.4951 H         1 <0>         0.1830
     40 H12        -0.6094    1.6179    2.2408 H         1 <0>         0.1297
     41 H13        -2.7182    0.2312    1.9811 H         1 <0>         0.0844
     42 H14        -2.6289   -0.0911    3.7293 H         1 <0>         0.0808
     43 H15        -2.7436    2.5137    4.0893 H         1 <0>         0.1144
     44 H16        -4.2300    1.8304    1.5330 H         1 <0>         0.0957
     45 H17        -4.4167    3.3531    2.6033 H         1 <0>         0.1003
     46 H18        -2.1040   -2.1583   -2.1206 H         1 <0>         0.0662
     47 H19        -1.4591   -3.6894   -1.4818 H         1 <0>         0.0601
     48 H20        -1.9272   -2.3856   -0.3641 H         1 <0>         0.0569
     49 H21         1.5534   -1.9734   -2.8152 H         1 <0>         0.0634
     50 H22         0.5617   -3.4486   -2.9082 H         1 <0>         0.0638
     51 H23        -0.0632   -1.9137   -3.5576 H         1 <0>         0.0747
@<TRIPOS>BOND
     1    1    2 1
     2    1   29 1
     3    1   30 1
     4    1   31 1
     5    2    7 1
     6    2    3 2
     7    3    4 1
     8    3   32 1
     9    4    5 1
    10    4   27 1
    11    4   28 1
    12    5    6 1
    13    5   33 1
    14    6   11 ar
    15    6    7 ar
    16    7    8 ar
    17    8   23 1
    18    8    9 ar
    19    9   10 ar
    20    9   12 1
    21   10   11 ar
    22   10   34 1
    23   11   35 1
    24   12   17 ar
    25   12   13 ar
    26   13   14 ar
    27   13   22 1
    28   14   15 ar
    29   14   36 1
    30   15   16 ar
    31   15   37 1
    32   16   17 ar
    33   16   38 1
    34   17   18 1
    35   18   19 1
    36   19   20 1
    37   19   21 1
    38   19   39 1
    39   22   23 1
    40   23   24 1
    41   23   40 1
    42   24   25 1
    43   24   41 1
    44   24   42 1
    45   25   26 2
    46   25   43 1
    47   26   44 1
    48   26   45 1
    49   27   46 1
    50   27   47 1
    51   27   48 1
    52   28   49 1
    53   28   50 1
    54   28   51 1
@<TRIPOS>MOLECULE
CHEMBL267231__1
   51    54     0     0     0
SMALL
USER_CHARGES

@<TRIPOS>ATOM
      1 C1         -0.2177    1.7053    0.0103 C.3       1 <0>        -0.1250
      2 C2         -0.1622    0.2045   -0.0989 C.2       1 <0>        -0.0625
      3 C3         -0.3264   -0.2941   -1.3257 C.2       1 <0>        -0.1752
      4 C4         -0.2776   -1.7727   -1.5854 C.3       1 <0>         0.2120
      5 N1          0.5970   -2.4045   -0.5930 N.pl3     1 <0>        -0.7369
      6 C5          0.5059   -2.0033    0.7410 C.ar      1 <0>         0.2226
      7 C6          0.0646   -0.6931    1.0445 C.ar      1 <0>        -0.0883
      8 C7         -0.1790   -0.3809    2.3735 C.ar      1 <0>        -0.0573
      9 C8          0.2157   -1.2756    3.3849 C.ar      1 <0>        -0.0800
     10 C9          0.7808   -2.5022    3.0623 C.ar      1 <0>        -0.0455
     11 C10         0.9221   -2.8631    1.7384 C.ar      1 <0>        -0.1838
     12 C11        -0.0169   -0.8909    4.7978 C.ar      1 <0>        -0.1117
     13 C12        -1.0194    0.0621    5.0460 C.ar      1 <0>         0.1510
     14 C13        -1.3137    0.4466    6.3383 C.ar      1 <0>        -0.1591
     15 C14        -0.6135   -0.1049    7.3972 C.ar      1 <0>        -0.0538
     16 C15         0.3813   -1.0339    7.1645 C.ar      1 <0>        -0.2160
     17 C16         0.6888   -1.4272    5.8662 C.ar      1 <0>         0.1422
     18 O1          1.7003   -2.3147    5.6763 O.3       1 <0>        -0.3153
     19 C17         2.3609   -2.8052    6.8447 C.3       1 <0>         0.4105
     20 F1          2.9270   -1.7342    7.5445 F         1 <0>        -0.1963
     21 F2          1.4350   -3.4601    7.6637 F         1 <0>        -0.1964
     22 O2         -1.6706    0.5979    3.9808 O.3       1 <0>        -0.2992
     23 C18        -0.8522    0.8854    2.8325 C.3       1 <0>         0.1420
     24 C19         0.2001    1.9152    3.2475 C.3       1 <0>        -0.1223
     25 C20        -0.4770    3.2206    3.5770 C.2       1 <0>        -0.1528
     26 C21        -0.2797    3.7849    4.7426 C.2       1 <0>        -0.1815
     27 C22        -1.6845   -2.3625   -1.4820 C.3       1 <0>        -0.1580
     28 C23         0.2782   -2.0273   -2.9882 C.3       1 <0>        -0.1527
     29 H1          0.4907    2.0409    0.7677 H         1 <0>         0.0711
     30 H2          0.0408    2.1493   -0.9511 H         1 <0>         0.0709
     31 H3         -1.2246    2.0121    0.2932 H         1 <0>         0.0719
     32 H4         -0.4962    0.3887   -2.1445 H         1 <0>         0.1243
     33 H5          1.2306   -3.0916   -0.8584 H         1 <0>         0.4025
     34 H6          1.0917   -3.1917    3.8311 H         1 <0>         0.1339
     35 H7          1.3585   -3.8185    1.4809 H         1 <0>         0.1272
     36 H8         -2.0880    1.1762    6.5260 H         1 <0>         0.1377
     37 H9         -0.8465    0.1940    8.4080 H         1 <0>         0.1370
     38 H10         0.9270   -1.4597    7.9942 H         1 <0>         0.1383
     39 H11         3.1453   -3.5034    6.5524 H         1 <0>         0.1831
     40 H12        -1.5068    1.2830    2.0689 H         1 <0>         0.1280
     41 H13         0.7370    1.5529    4.1242 H         1 <0>         0.0784
     42 H14         0.9028    2.0670    2.4282 H         1 <0>         0.0926
     43 H15        -1.1249    3.6909    2.8521 H         1 <0>         0.1121
     44 H16         0.3683    3.3146    5.4675 H         1 <0>         0.0947
     45 H17        -0.7649    4.7204    4.9787 H         1 <0>         0.0999
     46 H18        -2.3325   -1.8881   -2.2190 H         1 <0>         0.0665
     47 H19        -1.6436   -3.4352   -1.6711 H         1 <0>         0.0601
     48 H20        -2.0804   -2.1847   -0.4821 H         1 <0>         0.0576
     49 H21         1.2836   -1.6126   -3.0615 H         1 <0>         0.0632
     50 H22         0.3133   -3.1005   -3.1758 H         1 <0>         0.0636
     51 H23        -0.3663   -1.5503   -3.7265 H         1 <0>         0.0746
@<TRIPOS>BOND
     1    1    2 1
     2    1   29 1
     3    1   30 1
     4    1   31 1
     5    2    7 1
     6    2    3 2
     7    3    4 1
     8    3   32 1
     9    4    5 1
    10    4   27 1
    11    4   28 1
    12    5    6 1
    13    5   33 1
    14    6   11 ar
    15    6    7 ar
    16    7    8 ar
    17    8   23 1
    18    8    9 ar
    19    9   10 ar
    20    9   12 1
    21   10   11 ar
    22   10   34 1
    23   11   35 1
    24   12   17 ar
    25   12   13 ar
    26   13   14 ar
    27   13   22 1
    28   14   15 ar
    29   14   36 1
    30   15   16 ar
    31   15   37 1
    32   16   17 ar
    33   16   38 1
    34   17   18 1
    35   18   19 1
    36   19   20 1
    37   19   21 1
    38   19   39 1
    39   22   23 1
    40   23   24 1
    41   23   40 1
    42   24   25 1
    43   24   41 1
    44   24   42 1
    45   25   26 2
    46   25   43 1
    47   26   44 1
    48   26   45 1
    49   27   46 1
    50   27   47 1
    51   27   48 1
    52   28   49 1
    53   28   50 1
    54   28   51 1
@<TRIPOS>MOLECULE
CHEMBL273453
   54    57     0     0     0
SMALL
USER_CHARGES

@<TRIPOS>ATOM
      1 C1          0.5308    1.1297    0.4529 C.3       1 <0>        -0.1357
      2 C2          0.6495   -0.3924    0.3526 C.3       1 <0>        -0.0249
      3 C3         -0.7227   -0.9881    0.6128 C.3       1 <0>        -0.1036
      4 C4         -1.0427   -1.0319    2.1067 C.3       1 <0>        -0.1670
      5 C5          0.0421   -1.8503    2.7793 C.2       1 <0>         0.3888
      6 O1         -0.2223   -2.7475    3.5520 O.2       1 <0>        -0.4590
      7 C6          1.4278   -1.5016    2.4472 C.2       1 <0>        -0.2471
      8 C7          1.7018   -0.8395    1.3201 C.2       1 <0>        -0.0152
      9 C8          3.1507   -0.4880    1.0360 C.3       1 <0>        -0.0971
     10 C9          3.4743   -0.8673   -0.4109 C.3       1 <0>        -0.1103
     11 C10         2.4766   -0.1784   -1.3462 C.3       1 <0>        -0.0900
     12 H1          2.4867    0.8977   -1.1733 H         1 <0>         0.1078
     13 C11         1.0717   -0.7392   -1.0803 C.3       1 <0>        -0.0632
     14 H2          1.1078   -1.8234   -1.1871 H         1 <0>         0.0824
     15 C12         0.0333   -0.1892   -2.0539 C.3       1 <0>         0.1037
     16 H3         -0.9154   -0.6994   -1.8871 H         1 <0>         0.0691
     17 C13         0.4603   -0.3911   -3.5163 C.3       1 <0>        -0.1362
     18 C14         1.8042    0.2906   -3.6881 C.3       1 <0>        -0.1206
     19 C15         2.8376   -0.4746   -2.7901 C.3       1 <0>        -0.0621
     20 H4          2.7716   -1.5450   -2.9853 H         1 <0>         0.0804
     21 C16         4.1794    0.0900   -3.2704 C.3       1 <0>        -0.1215
     22 C17         3.9959    0.1607   -4.8111 C.3       1 <0>        -0.1126
     23 C18         2.4317    0.2174   -5.0762 C.3       1 <0>        -0.1197
     24 H5          2.0916   -0.6774   -5.5976 H         1 <0>         0.1106
     25 C19         2.0853    1.4497   -5.8714 C.2       1 <0>         0.3436
     26 O2          2.8268    2.4029   -5.8615 O.2       1 <0>        -0.4122
     27 C20         0.8137    1.4926   -6.6790 C.3       1 <0>         0.0255
     28 O3          0.7106    2.7562   -7.3383 O.3       1 <0>        -0.5538
     29 C21         1.7077    1.7282   -3.2464 C.2       1 <0>         0.3688
     30 O4          2.6295    2.2429   -2.6602 O.2       1 <0>        -0.4394
     31 O5         -0.1403    1.2080   -1.8095 O.3       1 <0>        -0.5485
     32 H6          1.3444    1.5950   -0.1035 H         1 <0>         0.0680
     33 H7         -0.4241    1.4480    0.0346 H         1 <0>         0.0879
     34 H8          0.5875    1.4304    1.4991 H         1 <0>         0.0404
     35 H9         -1.4749   -0.3842    0.1052 H         1 <0>         0.0833
     36 H10        -0.7525   -2.0016    0.2126 H         1 <0>         0.0646
     37 H11        -1.0500   -0.0207    2.5138 H         1 <0>         0.1005
     38 H12        -2.0131   -1.5025    2.2641 H         1 <0>         0.0914
     39 H13         2.2304   -1.7933    3.1083 H         1 <0>         0.1330
     40 H14         3.3011    0.5825    1.1756 H         1 <0>         0.0859
     41 H15         3.8007   -1.0420    1.7132 H         1 <0>         0.0777
     42 H16         4.4859   -0.5432   -0.6549 H         1 <0>         0.0738
     43 H17         3.3984   -1.9482   -0.5298 H         1 <0>         0.0642
     44 H18         0.5535   -1.4554   -3.7324 H         1 <0>         0.0894
     45 H19        -0.2736    0.0613   -4.1833 H         1 <0>         0.0769
     46 H20         4.3499    1.0838   -2.8564 H         1 <0>         0.0923
     47 H21         4.9963   -0.5829   -3.0099 H         1 <0>         0.0693
     48 H22         4.4884    1.0491   -5.2062 H         1 <0>         0.0816
     49 H23         4.4066   -0.7344   -5.2783 H         1 <0>         0.0712
     50 H24         0.8281    0.6952   -7.4220 H         1 <0>         0.0831
     51 H25        -0.0417    1.3572   -6.0172 H         1 <0>         0.0799
     52 H26        -0.0859    2.8545   -7.8778 H         1 <0>         0.3869
     53 H27         0.8141    2.2981   -3.4540 H         1 <0>         0.0866
     54 H28        -0.8479    1.6132   -2.3292 H         1 <0>         0.3711
@<TRIPOS>BOND
     1    1    2 1
     2    1   32 1
     3    1   33 1
     4    1   34 1
     5    2    8 1
     6    2   13 1
     7    2    3 1
     8    3    4 1
     9    3   35 1
    10    3   36 1
    11    4    5 1
    12    4   37 1
    13    4   38 1
    14    5    6 2
    15    5    7 1
    16    7    8 2
    17    7   39 1
    18    8    9 1
    19    9   10 1
    20    9   40 1
    21    9   41 1
    22   10   11 1
    23   10   42 1
    24   10   43 1
    25   11   12 1
    26   11   19 1
    27   11   13 1
    28   13   14 1
    29   13   15 1
    30   15   16 1
    31   15   17 1
    32   15   31 1
    33   17   18 1
    34   17   44 1
    35   17   45 1
    36   18   23 1
    37   18   19 1
    38   18   29 1
    39   19   20 1
    40   19   21 1
    41   21   22 1
    42   21   46 1
    43   21   47 1
    44   22   23 1
    45   22   48 1
    46   22   49 1
    47   23   24 1
    48   23   25 1
    49   25   26 2
    50   25   27 1
    51   27   28 1
    52   27   50 1
    53   27   51 1
    54   28   52 1
    55   29   30 2
    56   29   53 1
    57   31   54 1
@<TRIPOS>MOLECULE
CHEMBL423620
   46    49     0     0     0
SMALL
USER_CHARGES

@<TRIPOS>ATOM
      1 C1         -0.0187    1.5258    0.0104 C.3       1 <0>        -0.1446
      2 C2          0.0021   -0.0041    0.0020 C.3       1 <0>        -0.0118
      3 C3         -1.4129   -0.4753   -0.1654 C.3       1 <0>        -0.1022
      4 C4         -1.6093   -1.9245    0.2661 C.3       1 <0>        -0.1248
      5 C5         -1.1470   -2.0572    1.7214 C.3       1 <0>        -0.1057
      6 C6          0.3550   -1.8145    1.7754 C.3       1 <0>        -0.0758
      7 C7          0.7449   -0.4541    1.2480 C.3       1 <0>         0.1717
      8 H1          0.6315    0.2876    2.0386 H         1 <0>         0.0922
      9 N1          2.1515   -0.5232    0.7845 N.pl3     1 <0>        -0.7312
     10 C8          2.1388   -0.7576   -0.5932 C.ar      1 <0>         0.2710
     11 C9          0.8923   -0.4321   -1.1396 C.ar      1 <0>        -0.1597
     12 C10         0.6666   -0.5346   -2.4781 C.ar      1 <0>        -0.0058
     13 C11         1.6827   -0.9953   -3.3262 C.ar      1 <0>        -0.1664
     14 C12         1.4734   -1.0979   -4.7251 C.2       1 <0>        -0.0567
     15 C13         2.4772   -1.5597   -5.5115 C.2       1 <0>        -0.1726
     16 C14         3.7124   -1.9330   -4.9431 C.2       1 <0>         0.5410
     17 N2          3.9245   -1.8338   -3.6175 N.am      1 <0>        -0.6232
     18 C15         2.9305   -1.3616   -2.7842 C.ar      1 <0>         0.2473
     19 C16         3.1484   -1.2378   -1.4204 C.ar      1 <0>        -0.2388
     20 O1          4.6020   -2.3525   -5.6633 O.2       1 <0>        -0.5245
     21 C17         0.1519   -0.6994   -5.3301 C.3       1 <0>         0.5055
     22 F1          0.1963   -0.8916   -6.7151 F         1 <0>        -0.1685
     23 F2         -0.8676   -1.4855   -4.7826 F         1 <0>        -0.1676
     24 F3         -0.0996    0.6488   -5.0542 F         1 <0>        -0.1677
     25 C18         1.0592   -2.8795    0.9323 C.3       1 <0>        -0.1456
     26 C19         0.8256   -1.9439    3.2255 C.3       1 <0>        -0.1430
     27 H2          1.0039    1.9031    0.0027 H         1 <0>         0.0581
     28 H3         -0.5459    1.8868   -0.8726 H         1 <0>         0.0628
     29 H4         -0.5289    1.8773    0.9072 H         1 <0>         0.0612
     30 H5         -2.0679    0.1605    0.4302 H         1 <0>         0.0699
     31 H6         -1.6932   -0.3800   -1.2144 H         1 <0>         0.0697
     32 H7         -2.6633   -2.1915    0.1893 H         1 <0>         0.0686
     33 H8         -1.0156   -2.5813   -0.3697 H         1 <0>         0.0699
     34 H9         -1.6597   -1.3183    2.3373 H         1 <0>         0.0661
     35 H10        -1.3693   -3.0599    2.0863 H         1 <0>         0.0684
     36 H11         2.9408   -0.4230    1.3393 H         1 <0>         0.4182
     37 H12        -0.2950   -0.2608   -2.8863 H         1 <0>         0.1328
     38 H13         2.3297   -1.6422   -6.5782 H         1 <0>         0.1678
     39 H14         4.1037   -1.5150   -0.9998 H         1 <0>         0.1341
     40 H15         0.7121   -2.8145   -0.0989 H         1 <0>         0.0617
     41 H16         2.1362   -2.7146    0.9643 H         1 <0>         0.0588
     42 H17         0.8309   -3.8679    1.3309 H         1 <0>         0.0512
     43 H18         0.6006   -2.9453    3.5925 H         1 <0>         0.0592
     44 H19         1.9008   -1.7718    3.2753 H         1 <0>         0.0525
     45 H20         0.3107   -1.2069    3.8418 H         1 <0>         0.0563
     46 H21         4.7811   -2.0958   -3.2456 H         1 <0>         0.4201
@<TRIPOS>BOND
     1    1    2 1
     2    1   27 1
     3    1   28 1
     4    1   29 1
     5    2    7 1
     6    2   11 1
     7    2    3 1
     8    3    4 1
     9    3   30 1
    10    3   31 1
    11    4    5 1
    12    4   32 1
    13    4   33 1
    14    5    6 1
    15    5   34 1
    16    5   35 1
    17    6    7 1
    18    6   25 1
    19    6   26 1
    20    7    8 1
    21    7    9 1
    22    9   10 1
    23    9   36 1
    24   10   19 ar
    25   10   11 ar
    26   11   12 ar
    27   12   13 ar
    28   12   37 1
    29   13   18 ar
    30   13   14 1
    31   14   15 2
    32   14   21 1
    33   15   16 1
    34   15   38 1
    35   16   17 am
    36   16   20 2
    37   17   18 1
    38   17   46 1
    39   18   19 ar
    40   19   39 1
    41   21   22 1
    42   21   23 1
    43   21   24 1
    44   25   40 1
    45   25   41 1
    46   25   42 1
    47   26   43 1
    48   26   44 1
    49   26   45 1
@<TRIPOS>MOLECULE
CHEMBL1215693
   44    47     0     0     0
SMALL
USER_CHARGES

@<TRIPOS>ATOM
      1 C1         -0.0184    1.5028    0.0103 C.3       1 <0>        -0.0860
      2 C2          0.0021   -0.0041    0.0020 C.2       1 <0>         0.1226
      3 C3          0.0060   -0.7216   -1.1722 C.2       1 <0>        -0.1766
      4 S1          0.0318   -2.3898   -0.5355 S.3       1 <0>         0.1525
      5 C4          0.0348   -2.0121    1.1046 C.2       1 <0>         0.0679
      6 N1          0.0226   -0.7012    1.1155 N.2       1 <0>        -0.5189
      7 C5          0.0526   -2.9554    2.2798 C.3       1 <0>        -0.0708
      8 C6         -0.0077   -0.2478   -2.5612 C.2       1 <0>         0.1682
      9 N2         -0.0211    0.9906   -2.9262 N.2       1 <0>        -0.2156
     10 N3         -0.0317    1.1757   -4.3072 N.pl3     1 <0>        -0.4580
     11 C7         -0.0243   -0.1408   -4.9644 C.3       1 <0>         0.1582
     12 H1         -0.9235   -0.2742   -5.5658 H         1 <0>         0.1065
     13 C8         -0.0017   -1.1343   -3.7860 C.3       1 <0>        -0.1216
     14 C9          1.2093   -0.3016   -5.8150 C.ar      1 <0>        -0.1185
     15 C10         2.4233    0.1880   -5.3706 C.ar      1 <0>        -0.0643
     16 C11         3.5553    0.0407   -6.1496 C.ar      1 <0>        -0.1497
     17 C12         3.4731   -0.5977   -7.3755 C.ar      1 <0>         0.1092
     18 C13         2.2566   -1.0877   -7.8195 C.ar      1 <0>        -0.1505
     19 C14         1.1270   -0.9439   -7.0364 C.ar      1 <0>        -0.0751
     20 F1          4.5790   -0.7419   -8.1381 F         1 <0>        -0.1359
     21 C15        -0.0469    2.4036   -4.9578 C.ar      1 <0>         0.2620
     22 C16        -0.0627    2.4525   -6.3497 C.ar      1 <0>        -0.1785
     23 C17        -0.0777    3.6668   -6.9968 C.ar      1 <0>        -0.0244
     24 C18        -0.0772    4.8526   -6.2555 C.ar      1 <0>        -0.0771
     25 C19        -0.0614    4.8003   -4.8581 C.ar      1 <0>        -0.0282
     26 C20        -0.0521    3.5829   -4.2166 C.ar      1 <0>        -0.1637
     27 C21        -0.0924    6.1178   -6.9259 C.1       1 <0>         0.2569
     28 N4         -0.1044    7.1216   -7.4578 N.1       1 <0>        -0.4248
     29 H2          1.0042    1.8801    0.0026 H         1 <0>         0.0794
     30 H3         -0.5455    1.8639   -0.8728 H         1 <0>         0.0893
     31 H4         -0.5286    1.8543    0.9071 H         1 <0>         0.0759
     32 H5          1.0845   -3.1695    2.5581 H         1 <0>         0.0942
     33 H6         -0.4631   -2.4955    3.1227 H         1 <0>         0.0965
     34 H7         -0.4505   -3.8835    2.0084 H         1 <0>         0.0894
     35 H8          0.9025   -1.7423   -3.8134 H         1 <0>         0.1087
     36 H9         -0.8894   -1.7666   -3.8046 H         1 <0>         0.1102
     37 H10         2.4871    0.6863   -4.4146 H         1 <0>         0.1281
     38 H11         4.5036    0.4237   -5.8025 H         1 <0>         0.1377
     39 H12         2.1913   -1.5856   -8.7757 H         1 <0>         0.1403
     40 H13         0.1789   -1.3300   -7.3805 H         1 <0>         0.1375
     41 H14        -0.0627    1.5364   -6.9217 H         1 <0>         0.1333
     42 H15        -0.0895    3.7040   -8.0761 H         1 <0>         0.1357
     43 H16        -0.0609    5.7144   -4.2829 H         1 <0>         0.1361
     44 H17        -0.0443    3.5418   -3.1375 H         1 <0>         0.1416
@<TRIPOS>BOND
     1    1    2 1
     2    1   29 1
     3    1   30 1
     4    1   31 1
     5    2    6 1
     6    2    3 2
     7    3    4 1
     8    3    8 1
     9    4    5 1
    10    5    6 2
    11    5    7 1
    12    7   32 1
    13    7   33 1
    14    7   34 1
    15    8   13 1
    16    8    9 2
    17    9   10 1
    18   10   11 1
    19   10   21 1
    20   11   12 1
    21   11   13 1
    22   11   14 1
    23   13   35 1
    24   13   36 1
    25   14   19 ar
    26   14   15 ar
    27   15   16 ar
    28   15   37 1
    29   16   17 ar
    30   16   38 1
    31   17   18 ar
    32   17   20 1
    33   18   19 ar
    34   18   39 1
    35   19   40 1
    36   21   26 ar
    37   21   22 ar
    38   22   23 ar
    39   22   41 1
    40   23   24 ar
    41   23   42 1
    42   24   25 ar
    43   24   27 1
    44   25   26 ar
    45   25   43 1
    46   26   44 1
    47   27   28 3
@<TRIPOS>MOLECULE
CHEMBL1215694
   61    65     0     0     0
SMALL
USER_CHARGES

@<TRIPOS>ATOM
      1 C1         -0.0184    1.5028    0.0103 C.3       1 <0>        -0.1837
      2 C2          0.0021   -0.0041    0.0020 C.2       1 <0>         0.2948
      3 O1          1.0609   -0.5963   -0.0113 O.2       1 <0>        -0.4644
      4 S1         -1.4241   -0.8535    0.0111 S.3       1 <0>        -0.0833
      5 C3         -0.9005   -2.5903   -0.0033 C.3       1 <0>        -0.0610
      6 H1         -0.2232   -2.7733    0.8309 H         1 <0>         0.1080
      7 C4         -0.1843   -2.8975   -1.3201 C.3       1 <0>        -0.0967
      8 C5         -1.1748   -2.7465   -2.4603 C.2       1 <0>        -0.0188
      9 C6         -0.8025   -2.0179   -3.5122 C.2       1 <0>        -0.2313
     10 C7         -1.7139   -1.8510   -4.6494 C.2       1 <0>         0.3894
     11 O2         -1.6002   -0.9283   -5.4290 O.2       1 <0>        -0.4546
     12 C8         -2.8052   -2.8929   -4.7992 C.3       1 <0>        -0.1671
     13 C9         -3.4896   -3.0371   -3.4408 C.3       1 <0>        -0.1041
     14 C10        -2.5043   -3.4278   -2.3529 C.3       1 <0>        -0.0252
     15 C11        -3.1310   -3.1421   -0.9828 C.3       1 <0>        -0.0742
     16 H2         -3.3607   -2.0788   -0.9135 H         1 <0>         0.0853
     17 C12        -2.1285   -3.4959    0.1266 C.3       1 <0>        -0.0588
     18 H3         -1.8314   -4.5412    0.0408 H         1 <0>         0.1069
     19 C13        -2.8116   -3.2440    1.4585 C.3       1 <0>        -0.0892
     20 H4         -3.1680   -2.2153    1.5120 H         1 <0>         0.0937
     21 C14        -1.9888   -3.5881    2.7059 C.3       1 <0>        -0.1140
     22 C15        -3.0795   -3.8133    3.7924 C.3       1 <0>        -0.1425
     23 C16        -4.3632   -4.1899    3.0314 C.3       1 <0>         0.1181
     24 C17        -4.0036   -4.2363    1.5567 C.3       1 <0>        -0.0464
     25 C18        -5.0453   -3.7839    0.5528 C.3       1 <0>        -0.0975
     26 C19        -4.4256   -3.9388   -0.8491 C.3       1 <0>        -0.1211
     27 C20        -3.5303   -5.6466    1.1989 C.3       1 <0>        -0.1554
     28 C21        -4.9144   -5.5370    3.5396 C.3       1 <0>        -0.1432
     29 C22        -5.7679   -5.0589    4.7441 C.3       1 <0>        -0.1894
     30 C23        -5.9749   -3.5784    4.4834 C.2       1 <0>         0.4787
     31 O3         -6.5489   -2.8105    5.2186 O.2       1 <0>        -0.4500
     32 O4         -5.4145   -3.2572    3.2981 O.3       1 <0>        -0.3271
     33 C24        -2.2726   -4.9374   -2.4429 C.3       1 <0>        -0.1520
     34 H5          1.0042    1.8801    0.0026 H         1 <0>         0.0923
     35 H6         -0.5455    1.8639   -0.8728 H         1 <0>         0.0982
     36 H7         -0.5286    1.8543    0.9071 H         1 <0>         0.0980
     37 H8          0.6415   -2.1997   -1.4585 H         1 <0>         0.0922
     38 H9          0.1965   -3.9186   -1.2995 H         1 <0>         0.0980
     39 H10         0.1707   -1.5498   -3.5272 H         1 <0>         0.1312
     40 H11        -3.5290   -2.5664   -5.5459 H         1 <0>         0.0937
     41 H12        -2.3687   -3.8462   -5.0972 H         1 <0>         0.1000
     42 H13        -3.9548   -2.0880   -3.1747 H         1 <0>         0.0720
     43 H14        -4.2624   -3.8025   -3.5118 H         1 <0>         0.0852
     44 H15        -1.4094   -4.4975    2.5468 H         1 <0>         0.0749
     45 H16        -1.3377   -2.7578    2.9794 H         1 <0>         0.0729
     46 H17        -2.7852   -4.6253    4.4573 H         1 <0>         0.0826
     47 H18        -3.2360   -2.8978    4.3629 H         1 <0>         0.0793
     48 H19        -5.9359   -4.4068    0.6358 H         1 <0>         0.0685
     49 H20        -5.3035   -2.7400    0.7307 H         1 <0>         0.0739
     50 H21        -5.1382   -3.5871   -1.5952 H         1 <0>         0.0717
     51 H22        -4.2148   -4.9928   -1.0297 H         1 <0>         0.0767
     52 H23        -2.7464   -5.9534    1.8914 H         1 <0>         0.0619
     53 H24        -4.3686   -6.3398    1.2688 H         1 <0>         0.0642
     54 H25        -3.1388   -5.6513    0.1817 H         1 <0>         0.0759
     55 H26        -5.5344   -6.0194    2.7839 H         1 <0>         0.0940
     56 H27        -4.1085   -6.1953    3.8641 H         1 <0>         0.0989
     57 H28        -6.7248   -5.5805    4.7653 H         1 <0>         0.1137
     58 H29        -5.2283   -5.2105    5.6789 H         1 <0>         0.1112
     59 H30        -1.6211   -5.2542   -1.6284 H         1 <0>         0.0624
     60 H31        -3.2279   -5.4568   -2.3670 H         1 <0>         0.0722
     61 H32        -1.8037   -5.1768   -3.3973 H         1 <0>         0.0604
@<TRIPOS>BOND
     1    1    2 1
     2    1   34 1
     3    1   35 1
     4    1   36 1
     5    2    3 2
     6    2    4 1
     7    4    5 1
     8    5    6 1
     9    5   17 1
    10    5    7 1
    11    7    8 1
    12    7   37 1
    13    7   38 1
    14    8   14 1
    15    8    9 2
    16    9   10 1
    17    9   39 1
    18   10   11 2
    19   10   12 1
    20   12   13 1
    21   12   40 1
    22   12   41 1
    23   13   14 1
    24   13   42 1
    25   13   43 1
    26   14   15 1
    27   14   33 1
    28   15   16 1
    29   15   26 1
    30   15   17 1
    31   17   18 1
    32   17   19 1
    33   19   20 1
    34   19   24 1
    35   19   21 1
    36   21   22 1
    37   21   44 1
    38   21   45 1
    39   22   23 1
    40   22   46 1
    41   22   47 1
    42   23   32 1
    43   23   24 1
    44   23   28 1
    45   24   25 1
    46   24   27 1
    47   25   26 1
    48   25   48 1
    49   25   49 1
    50   26   50 1
    51   26   51 1
    52   27   52 1
    53   27   53 1
    54   27   54 1
    55   28   29 1
    56   28   55 1
    57   28   56 1
    58   29   30 1
    59   29   57 1
    60   29   58 1
    61   30   31 2
    62   30   32 1
    63   33   59 1
    64   33   60 1
    65   33   61 1
@<TRIPOS>MOLECULE
CHEMBL233995
   69    73     0     0     0
SMALL
USER_CHARGES

@<TRIPOS>ATOM
      1 C1          1.0719    1.2042   -0.4969 C.3       1 <0>        -0.1231
      2 C2          0.9537   -0.2961   -0.3452 C.2       1 <0>        -0.0938
      3 C3          0.9496   -1.0085   -1.4424 C.2       1 <0>        -0.1478
      4 C4          0.9264   -2.5076   -1.4532 C.3       1 <0>         0.1438
      5 N1          1.3969   -3.0275   -0.1601 N.3       1 <0>        -0.6662
      6 C5          0.6537   -2.4350    0.9385 C.3       1 <0>         0.1189
      7 C6          0.8750   -0.9151    0.9964 C.3       1 <0>         0.0085
      8 C7         -0.1051   -0.3962    1.9906 C.2       1 <0>        -0.1056
      9 C8         -0.1130   -1.0667    3.2120 C.2       1 <0>        -0.0105
     10 C9          0.7277   -2.2598    3.3693 C.2       1 <0>        -0.1190
     11 C10         1.0950   -2.9614    2.2853 C.2       1 <0>        -0.1215
     12 C11        -0.9566   -0.5240    4.2881 C.ar      1 <0>        -0.1183
     13 C12        -1.5726    0.7266    4.0910 C.ar      1 <0>         0.1281
     14 C13        -2.3486    1.2863    5.0892 C.ar      1 <0>        -0.1274
     15 C14        -2.5374    0.6126    6.2820 C.ar      1 <0>        -0.0880
     16 C15        -1.9550   -0.6283    6.4818 C.ar      1 <0>         0.0593
     17 C16        -1.1679   -1.2038    5.4881 C.ar      1 <0>         0.1248
     18 O1         -0.6325   -2.4339    5.7054 O.3       1 <0>        -0.3201
     19 C17        -1.4654   -3.5618    5.4297 C.3       1 <0>         0.0367
     20 O2         -2.1519   -1.2912    7.6544 O.3       1 <0>        -0.4810
     21 O3         -1.4186    1.3705    2.9033 O.3       1 <0>        -0.2298
     22 C18        -1.0670    0.6021    1.8344 C.2       1 <0>         0.1081
     23 C19        -1.7523    0.7779    0.6778 C.2       1 <0>        -0.1271
     24 C20        -2.6311    1.9435    0.5148 C.ar      1 <0>        -0.0520
     25 C21        -2.4943    3.0514    1.3599 C.ar      1 <0>        -0.0699
     26 C22        -3.3221    4.1416    1.2006 C.ar      1 <0>        -0.1550
     27 C23        -4.2886    4.1431    0.2065 C.ar      1 <0>         0.0992
     28 C24        -4.4302    3.0498   -0.6337 C.ar      1 <0>        -0.1336
     29 C25        -3.6056    1.9544   -0.4901 C.ar      1 <0>        -0.0511
     30 C26        -3.7571    0.7693   -1.4085 C.3       1 <0>         0.1056
     31 O4         -4.8105    1.0207   -2.3408 O.3       1 <0>        -0.3961
     32 C27        -5.0379   -0.0472   -3.2627 C.3       1 <0>         0.2135
     33 O5         -5.7132   -1.1159   -2.5966 O.3       1 <0>        -0.4037
     34 C28        -7.0986   -0.8651   -2.3519 C.3       1 <0>         0.0306
     35 F1         -5.0965    5.2154    0.0562 F         1 <0>        -0.1389
     36 C29         1.8674   -3.0061   -2.5550 C.3       1 <0>        -0.1352
     37 C30        -0.4864   -3.0027   -1.7462 C.3       1 <0>        -0.1750
     38 H1          2.1247    1.4863   -0.5095 H         1 <0>         0.0680
     39 H2          0.6018    1.5132   -1.4306 H         1 <0>         0.0665
     40 H3          0.5743    1.6944    0.3399 H         1 <0>         0.0660
     41 H4          0.9634   -0.4899   -2.3861 H         1 <0>         0.1150
     42 H5          1.3585   -4.0354   -0.1393 H         1 <0>         0.3506
     43 H6         -0.4097   -2.6315    0.8412 H         1 <0>         0.0523
     44 H7          1.8795   -0.7816    1.4606 H         1 <0>         0.0967
     45 H8          1.0769   -2.5691    4.3431 H         1 <0>         0.1404
     46 H9          1.6783   -3.8594    2.3609 H         1 <0>         0.1349
     47 H10        -2.8091    2.2522    4.9400 H         1 <0>         0.1469
     48 H11        -3.1414    1.0558    7.0591 H         1 <0>         0.1475
     49 H12        -0.9041   -4.4795    5.6054 H         1 <0>         0.1002
     50 H13        -2.3371   -3.5383    6.0837 H         1 <0>         0.0453
     51 H14        -1.7903   -3.5281    4.3898 H         1 <0>         0.0478
     52 H15        -2.9240   -1.8733    7.6523 H         1 <0>         0.3855
     53 H16        -1.6521    0.0608   -0.1236 H         1 <0>         0.1427
     54 H17        -1.7421    3.0515    2.1350 H         1 <0>         0.1495
     55 H18        -3.2179    4.9967    1.8520 H         1 <0>         0.1365
     56 H19        -5.1858    3.0578   -1.4054 H         1 <0>         0.1442
     57 H20        -2.8246    0.6070   -1.9490 H         1 <0>         0.0697
     58 H21        -3.9957   -0.1174   -0.8211 H         1 <0>         0.0734
     59 H22        -5.6514    0.3110   -4.0894 H         1 <0>         0.0952
     60 H23        -4.0827   -0.4047   -3.6474 H         1 <0>         0.0927
     61 H24        -7.2024    0.0209   -1.7256 H         1 <0>         0.0493
     62 H25        -7.6113   -0.7020   -3.2999 H         1 <0>         0.0443
     63 H26        -7.5389   -1.7230   -1.8436 H         1 <0>         0.0852
     64 H27         2.8793   -2.6532   -2.3558 H         1 <0>         0.0659
     65 H28         1.8598   -4.0959   -2.5737 H         1 <0>         0.0569
     66 H29         1.5325   -2.6239   -3.5193 H         1 <0>         0.0620
     67 H30        -0.8070   -2.6311   -2.7195 H         1 <0>         0.0669
     68 H31        -0.4954   -4.0926   -1.7525 H         1 <0>         0.0596
     69 H32        -1.1662   -2.6381   -0.9762 H         1 <0>         0.0548
@<TRIPOS>BOND
     1    1    2 1
     2    1   38 1
     3    1   39 1
     4    1   40 1
     5    2    7 1
     6    2    3 2
     7    3    4 1
     8    3   41 1
     9    4    5 1
    10    4   36 1
    11    4   37 1
    12    5    6 1
    13    5   42 1
    14    6   11 1
    15    6    7 1
    16    6   43 1
    17    7    8 1
    18    7   44 1
    19    8   22 1
    20    8    9 2
    21    9   10 1
    22    9   12 1
    23   10   11 2
    24   10   45 1
    25   11   46 1
    26   12   17 ar
    27   12   13 ar
    28   13   14 ar
    29   13   21 1
    30   14   15 ar
    31   14   47 1
    32   15   16 ar
    33   15   48 1
    34   16   17 ar
    35   16   20 1
    36   17   18 1
    37   18   19 1
    38   19   49 1
    39   19   50 1
    40   19   51 1
    41   20   52 1
    42   21   22 1
    43   22   23 2
    44   23   24 1
    45   23   53 1
    46   24   29 ar
    47   24   25 ar
    48   25   26 ar
    49   25   54 1
    50   26   27 ar
    51   26   55 1
    52   27   28 ar
    53   27   35 1
    54   28   29 ar
    55   28   56 1
    56   29   30 1
    57   30   31 1
    58   30   57 1
    59   30   58 1
    60   31   32 1
    61   32   33 1
    62   32   59 1
    63   32   60 1
    64   33   34 1
    65   34   61 1
    66   34   62 1
    67   34   63 1
    68   36   64 1
    69   36   65 1
    70   36   66 1
    71   37   67 1
    72   37   68 1
    73   37   69 1
@<TRIPOS>MOLECULE
CHEMBL233995__1
   70    74     0     0     0
SMALL
USER_CHARGES

@<TRIPOS>ATOM
      1 C1          1.0456    1.2292   -0.5457 C.3       1 <0>        -0.1337
      2 C2          0.9281   -0.2715   -0.3983 C.2       1 <0>        -0.0707
      3 C3          0.9140   -0.9818   -1.4977 C.2       1 <0>        -0.1907
      4 C4          0.8917   -2.4803   -1.5116 C.3       1 <0>         0.1005
      5 N1          1.3825   -3.0079   -0.2310 N.4       1 <0>        -0.4883
      6 C5          0.6333   -2.4190    0.8667 C.3       1 <0>         0.0538
      7 C6          0.8607   -0.9009    0.9399 C.3       1 <0>        -0.0104
      8 C7         -0.1063   -0.3830    1.9478 C.2       1 <0>        -0.0998
      9 C8         -0.1168   -1.0710    3.1593 C.2       1 <0>        -0.0103
     10 C9          0.7136   -2.2732    3.2996 C.2       1 <0>        -0.0374
     11 C10         1.0737   -2.9635    2.2075 C.2       1 <0>        -0.2099
     12 C11        -0.9536   -0.5387    4.2461 C.ar      1 <0>        -0.1348
     13 C12        -1.5450    0.7276    4.0775 C.ar      1 <0>         0.1344
     14 C13        -2.3121    1.2790    5.0872 C.ar      1 <0>        -0.1242
     15 C14        -2.5157    0.5805    6.2640 C.ar      1 <0>        -0.0749
     16 C15        -1.9581   -0.6765    6.4353 C.ar      1 <0>         0.0657
     17 C16        -1.1810   -1.2431    5.4289 C.ar      1 <0>         0.1278
     18 O1         -0.6720   -2.4895    5.6152 O.3       1 <0>        -0.3238
     19 C17        -1.5282   -3.5921    5.3100 C.3       1 <0>         0.0336
     20 O2         -2.1696   -1.3633    7.5915 O.3       1 <0>        -0.4782
     21 O3         -1.3746    1.3937    2.9033 O.3       1 <0>        -0.2237
     22 C18        -1.0526    0.6337    1.8180 C.2       1 <0>         0.0835
     23 C19        -1.7541    0.8371    0.6761 C.2       1 <0>        -0.0985
     24 C20        -2.6136    2.0207    0.5432 C.ar      1 <0>        -0.0731
     25 C21        -2.4417    3.1149    1.3998 C.ar      1 <0>        -0.0613
     26 C22        -3.2516    4.2221    1.2688 C.ar      1 <0>        -0.1568
     27 C23        -4.2349    4.2543    0.2918 C.ar      1 <0>         0.1157
     28 C24        -4.4113    3.1748   -0.5596 C.ar      1 <0>        -0.1353
     29 C25        -3.6049    2.0627   -0.4443 C.ar      1 <0>        -0.0451
     30 C26        -3.7942    0.8926   -1.3749 C.3       1 <0>         0.1065
     31 O4         -4.8586    1.1755   -2.2855 O.3       1 <0>        -0.3938
     32 C27        -5.1216    0.1241   -3.2168 C.3       1 <0>         0.2134
     33 O5         -5.8052   -0.9406   -2.5526 O.3       1 <0>        -0.4061
     34 C28        -7.1813   -0.6676   -2.2807 C.3       1 <0>         0.0295
     35 F1         -5.0252    5.3432    0.1692 F         1 <0>        -0.1321
     36 C29         1.8170   -2.9738   -2.6300 C.3       1 <0>        -0.1738
     37 C30        -0.5230   -2.9780   -1.7894 C.3       1 <0>        -0.1713
     38 H1          2.0984    1.5109   -0.5666 H         1 <0>         0.0846
     39 H2          0.5674    1.5417   -1.4740 H         1 <0>         0.0827
     40 H3          0.5558    1.7166    0.2973 H         1 <0>         0.0808
     41 H4          0.9198   -0.4613   -2.4407 H         1 <0>         0.1546
     42 H5          1.2775   -4.0142   -0.2210 H         1 <0>         0.4326
     43 H6         -0.4300   -2.6125    0.7669 H         1 <0>         0.1489
     44 H7          1.8707   -0.7747    1.3935 H         1 <0>         0.1196
     45 H8          1.0574   -2.5993    4.2698 H         1 <0>         0.1607
     46 H9          1.6513   -3.8665    2.2711 H         1 <0>         0.1566
     47 H10        -2.7542    2.2569    4.9610 H         1 <0>         0.1521
     48 H11        -3.1126    1.0164    7.0506 H         1 <0>         0.1538
     49 H12        -0.9886   -4.5258    5.4685 H         1 <0>         0.1035
     50 H13        -2.4032   -3.5634    5.9594 H         1 <0>         0.0516
     51 H14        -1.8459   -3.5283    4.2692 H         1 <0>         0.0456
     52 H15        -2.9530   -1.9300    7.5746 H         1 <0>         0.3904
     53 H16        -1.6809    0.1289   -0.1360 H         1 <0>         0.1402
     54 H17        -1.6764    3.0910    2.1616 H         1 <0>         0.1502
     55 H18        -3.1204    5.0666    1.9291 H         1 <0>         0.1409
     56 H19        -5.1797    3.2068   -1.3179 H         1 <0>         0.1481
     57 H20        -2.8743    0.7202   -1.9336 H         1 <0>         0.0658
     58 H21        -4.0391    0.0029   -0.7948 H         1 <0>         0.0721
     59 H22        -5.7425    0.5042   -4.0281 H         1 <0>         0.0983
     60 H23        -4.1801   -0.2459   -3.6225 H         1 <0>         0.0909
     61 H24        -7.6287   -1.5237   -1.7757 H         1 <0>         0.0872
     62 H25        -7.2578    0.2120   -1.6414 H         1 <0>         0.0504
     63 H26        -7.7070   -0.4827   -3.2174 H         1 <0>         0.0475
     64 H27         2.8312   -2.6198   -2.4451 H         1 <0>         0.0840
     65 H28         1.8109   -4.0636   -2.6522 H         1 <0>         0.0853
     66 H29         1.4668   -2.5889   -3.5877 H         1 <0>         0.1094
     67 H30        -0.8555   -2.6053   -2.7583 H         1 <0>         0.1102
     68 H31        -0.5296   -4.0680   -1.7976 H         1 <0>         0.0864
     69 H32        -1.1948   -2.6165   -1.0110 H         1 <0>         0.0785
     70 H33         2.3660   -2.7859   -0.1355 H         1 <0>         0.4303
@<TRIPOS>BOND
     1    1    2 1
     2    1   38 1
     3    1   39 1
     4    1   40 1
     5    2    7 1
     6    2    3 2
     7    3    4 1
     8    3   41 1
     9    4    5 1
    10    4   36 1
    11    4   37 1
    12    5    6 1
    13    5   42 1
    14    5   70 1
    15    6   11 1
    16    6    7 1
    17    6   43 1
    18    7    8 1
    19    7   44 1
    20    8   22 1
    21    8    9 2
    22    9   10 1
    23    9   12 1
    24   10   11 2
    25   10   45 1
    26   11   46 1
    27   12   17 ar
    28   12   13 ar
    29   13   14 ar
    30   13   21 1
    31   14   15 ar
    32   14   47 1
    33   15   16 ar
    34   15   48 1
    35   16   17 ar
    36   16   20 1
    37   17   18 1
    38   18   19 1
    39   19   49 1
    40   19   50 1
    41   19   51 1
    42   20   52 1
    43   21   22 1
    44   22   23 2
    45   23   24 1
    46   23   53 1
    47   24   29 ar
    48   24   25 ar
    49   25   26 ar
    50   25   54 1
    51   26   27 ar
    52   26   55 1
    53   27   28 ar
    54   27   35 1
    55   28   29 ar
    56   28   56 1
    57   29   30 1
    58   30   31 1
    59   30   57 1
    60   30   58 1
    61   31   32 1
    62   32   33 1
    63   32   59 1
    64   32   60 1
    65   33   34 1
    66   34   61 1
    67   34   62 1
    68   34   63 1
    69   36   64 1
    70   36   65 1
    71   36   66 1
    72   37   67 1
    73   37   68 1
    74   37   69 1
@<TRIPOS>MOLECULE
CHEMBL233995__2
   69    73     0     0     0
SMALL
USER_CHARGES

@<TRIPOS>ATOM
      1 C1          1.3419    2.4180   -1.3877 C.3       1 <0>        -0.1282
      2 C2          1.4775    0.9377   -1.1404 C.2       1 <0>        -0.1079
      3 C3          1.5745    0.1456   -2.1646 C.2       1 <0>        -0.1765
      4 C4          1.7196   -1.3437   -2.0362 C.3       1 <0>         0.1389
      5 N1          1.2893   -1.7798   -0.7020 N.3       1 <0>        -0.6583
      6 C5          1.9706   -0.9973    0.3398 C.3       1 <0>         0.1172
      7 C6          1.5002    0.4485    0.2789 C.3       1 <0>        -0.0279
      8 C7          2.3837    1.3353    1.1119 C.2       1 <0>        -0.1174
      9 C8          3.7166    1.0537    1.2278 C.2       1 <0>         0.0124
     10 C9          4.2753   -0.1353    0.5746 C.2       1 <0>        -0.1528
     11 C10         3.4579   -1.0913    0.1502 C.2       1 <0>        -0.1095
     12 C11         4.5604    1.9677    2.0196 C.ar      1 <0>        -0.1249
     13 C12         3.9565    3.0675    2.6480 C.ar      1 <0>         0.1301
     14 C13         4.7363    3.9374    3.3942 C.ar      1 <0>        -0.1271
     15 C14         6.0964    3.7218    3.5189 C.ar      1 <0>        -0.0858
     16 C15         6.6980    2.6352    2.9024 C.ar      1 <0>         0.0627
     17 C16         5.9332    1.7515    2.1502 C.ar      1 <0>         0.1261
     18 O1          6.5183    0.6844    1.5451 O.3       1 <0>        -0.3177
     19 C17         6.7253   -0.4818    2.3445 C.3       1 <0>         0.0304
     20 O2          8.0374    2.4341    3.0339 O.3       1 <0>        -0.4807
     21 O3          2.6249    3.2759    2.5297 O.3       1 <0>        -0.2136
     22 C18         1.8558    2.4606    1.7782 C.2       1 <0>         0.1316
     23 C19         0.5279    2.7330    1.6594 C.2       1 <0>        -0.1824
     24 C20        -0.0232    3.9666    2.2357 C.ar      1 <0>        -0.0397
     25 C21         0.8271    5.0272    2.5716 C.ar      1 <0>        -0.0846
     26 C22         0.3028    6.1816    3.1115 C.ar      1 <0>        -0.1514
     27 C23        -1.0630    6.2944    3.3222 C.ar      1 <0>         0.0915
     28 C24        -1.9108    5.2486    2.9927 C.ar      1 <0>        -0.1302
     29 C25        -1.4015    4.0898    2.4465 C.ar      1 <0>        -0.0587
     30 C26        -2.3257    2.9563    2.0830 C.3       1 <0>         0.1066
     31 O4         -3.6723    3.3221    2.3908 O.3       1 <0>        -0.3967
     32 C27        -4.6342    2.3113    2.0826 C.3       1 <0>         0.2134
     33 O5         -4.5612    1.2707    3.0593 O.3       1 <0>        -0.4036
     34 C28        -5.1409    1.6146    4.3194 C.3       1 <0>         0.0306
     35 F1         -1.5699    7.4292    3.8519 F         1 <0>        -0.1404
     36 C29         0.8574   -2.0308   -3.0971 C.3       1 <0>        -0.1392
     37 C30         3.1845   -1.7309   -2.2485 C.3       1 <0>        -0.1484
     38 H1          2.3322    2.8715   -1.4304 H         1 <0>         0.0643
     39 H2          0.8258    2.5826   -2.3336 H         1 <0>         0.0628
     40 H3          0.7696    2.8708   -0.5780 H         1 <0>         0.0735
     41 H4          1.5501    0.5775   -3.1542 H         1 <0>         0.1122
     42 H5          0.2870   -1.7144   -0.6060 H         1 <0>         0.3477
     43 H6          1.7111   -1.4059    1.3164 H         1 <0>         0.1003
     44 H7          0.4898    0.5020    0.6841 H         1 <0>         0.0952
     45 H8          5.3433   -0.2318    0.4460 H         1 <0>         0.1547
     46 H9          3.8758   -1.9528   -0.3495 H         1 <0>         0.1426
     47 H10         4.2798    4.7872    3.8799 H         1 <0>         0.1483
     48 H11         6.6955    4.4059    4.1014 H         1 <0>         0.1492
     49 H12         7.1985   -1.2566    1.7413 H         1 <0>         0.1024
     50 H13         7.3692   -0.2343    3.1884 H         1 <0>         0.0476
     51 H14         5.7658   -0.8442    2.7137 H         1 <0>         0.0531
     52 H15         8.2802    1.8868    3.7933 H         1 <0>         0.3871
     53 H16        -0.1209    2.0423    1.1414 H         1 <0>         0.1481
     54 H17         1.8911    4.9405    2.4083 H         1 <0>         0.1482
     55 H18         0.9574    7.0004    3.3714 H         1 <0>         0.1346
     56 H19        -2.9735    5.3433    3.1603 H         1 <0>         0.1432
     57 H20        -2.2409    2.7460    1.0168 H         1 <0>         0.0674
     58 H21        -2.0516    2.0676    2.6515 H         1 <0>         0.0747
     59 H22        -5.6335    2.7465    2.0893 H         1 <0>         0.0948
     60 H23        -4.4242    1.8987    1.0958 H         1 <0>         0.0927
     61 H24        -4.6241    2.4807    4.7328 H         1 <0>         0.0493
     62 H25        -6.1956    1.8527    4.1812 H         1 <0>         0.0439
     63 H26        -5.0453    0.7728    5.0052 H         1 <0>         0.0856
     64 H27         1.1831   -1.7171   -4.0889 H         1 <0>         0.0638
     65 H28         0.9614   -3.1119   -3.0055 H         1 <0>         0.0677
     66 H29        -0.1866   -1.7527   -2.9527 H         1 <0>         0.0554
     67 H30         3.8286   -0.9864   -1.7804 H         1 <0>         0.0706
     68 H31         3.3712   -2.7065   -1.7997 H         1 <0>         0.0720
     69 H32         3.3975   -1.7755   -3.3165 H         1 <0>         0.0588
@<TRIPOS>BOND
     1    1    2 1
     2    1   38 1
     3    1   39 1
     4    1   40 1
     5    2    7 1
     6    2    3 2
     7    3    4 1
     8    3   41 1
     9    4    5 1
    10    4   36 1
    11    4   37 1
    12    5    6 1
    13    5   42 1
    14    6   11 1
    15    6    7 1
    16    6   43 1
    17    7    8 1
    18    7   44 1
    19    8   22 1
    20    8    9 2
    21    9   10 1
    22    9   12 1
    23   10   11 2
    24   10   45 1
    25   11   46 1
    26   12   17 ar
    27   12   13 ar
    28   13   14 ar
    29   13   21 1
    30   14   15 ar
    31   14   47 1
    32   15   16 ar
    33   15   48 1
    34   16   17 ar
    35   16   20 1
    36   17   18 1
    37   18   19 1
    38   19   49 1
    39   19   50 1
    40   19   51 1
    41   20   52 1
    42   21   22 1
    43   22   23 2
    44   23   24 1
    45   23   53 1
    46   24   29 ar
    47   24   25 ar
    48   25   26 ar
    49   25   54 1
    50   26   27 ar
    51   26   55 1
    52   27   28 ar
    53   27   35 1
    54   28   29 ar
    55   28   56 1
    56   29   30 1
    57   30   31 1
    58   30   57 1
    59   30   58 1
    60   31   32 1
    61   32   33 1
    62   32   59 1
    63   32   60 1
    64   33   34 1
    65   34   61 1
    66   34   62 1
    67   34   63 1
    68   36   64 1
    69   36   65 1
    70   36   66 1
    71   37   67 1
    72   37   68 1
    73   37   69 1
@<TRIPOS>MOLECULE
CHEMBL233995__3
   70    74     0     0     0
SMALL
USER_CHARGES

@<TRIPOS>ATOM
      1 C1          1.1012    2.8183   -1.1528 C.3       1 <0>        -0.1377
      2 C2          1.0940    1.3127   -1.0885 C.2       1 <0>        -0.0793
      3 C3          1.1152    0.6423   -2.2010 C.2       1 <0>        -0.1802
      4 C4          1.1143   -0.8586   -2.2488 C.3       1 <0>         0.1024
      5 N1          0.6166   -1.4069   -0.9819 N.4       1 <0>        -0.4966
      6 C5          1.3867   -0.8323    0.1299 C.3       1 <0>         0.0768
      7 C6          1.0688    0.6502    0.2594 C.3       1 <0>        -0.0213
      8 C7          2.0459    1.3289    1.1794 C.2       1 <0>        -0.1046
      9 C8          3.3431    0.8998    1.2315 C.2       1 <0>         0.0030
     10 C9          3.7703   -0.2470    0.4219 C.2       1 <0>        -0.0652
     11 C10         2.8544   -1.0536   -0.1023 C.2       1 <0>        -0.2129
     12 C11         4.2831    1.6140    2.1148 C.ar      1 <0>        -0.1377
     13 C12         3.8020    2.6817    2.8878 C.ar      1 <0>         0.1376
     14 C13         4.6737    3.3651    3.7214 C.ar      1 <0>        -0.1233
     15 C14         6.0044    2.9963    3.7913 C.ar      1 <0>        -0.0739
     16 C15         6.4847    1.9402    3.0319 C.ar      1 <0>         0.0699
     17 C16         5.6266    1.2426    2.1901 C.ar      1 <0>         0.1260
     18 O1          6.0926    0.2056    1.4451 O.3       1 <0>        -0.3213
     19 C17         6.1977   -1.0634    2.0937 C.3       1 <0>         0.0261
     20 O2          7.7964    1.5869    3.1109 O.3       1 <0>        -0.4783
     21 O3          2.4989    3.0397    2.8231 O.3       1 <0>        -0.2080
     22 C18         1.6430    2.4081    1.9926 C.2       1 <0>         0.1123
     23 C19         0.3493    2.8266    1.9377 C.2       1 <0>        -0.1546
     24 C20        -0.0509    4.0665    2.6159 C.ar      1 <0>        -0.0596
     25 C21         0.9150    5.0126    2.9798 C.ar      1 <0>        -0.0738
     26 C22         0.5320    6.1738    3.6155 C.ar      1 <0>        -0.1529
     27 C23        -0.8061    6.4064    3.8948 C.ar      1 <0>         0.1080
     28 C24        -1.7679    5.4742    3.5379 C.ar      1 <0>        -0.1320
     29 C25        -1.4004    4.3107    2.8964 C.ar      1 <0>        -0.0522
     30 C26        -2.4483    3.3013    2.5037 C.3       1 <0>         0.1070
     31 O4         -3.7379    3.7766    2.8950 O.3       1 <0>        -0.3941
     32 C27        -4.8086    2.8890    2.5669 C.3       1 <0>         0.2131
     33 O5         -4.8039    1.7824    3.4710 O.3       1 <0>        -0.4066
     34 C28        -5.2965    2.0954    4.7754 C.3       1 <0>         0.0296
     35 F1         -1.1742    7.5470    4.5182 F         1 <0>        -0.1338
     36 C29         0.2138   -1.3286   -3.3929 C.3       1 <0>        -0.1725
     37 C30         2.5397   -1.3587   -2.4921 C.3       1 <0>        -0.1838
     38 H1          2.1304    3.1772   -1.1511 H         1 <0>         0.0816
     39 H2          0.6039    3.1454   -2.0659 H         1 <0>         0.0794
     40 H3          0.5744    3.2214   -0.2878 H         1 <0>         0.0847
     41 H4          1.1340    1.1884   -3.1326 H         1 <0>         0.1535
     42 H5         -0.3586   -1.1721   -0.8731 H         1 <0>         0.4310
     43 H6          1.0962   -1.3298    1.0552 H         1 <0>         0.1527
     44 H7          0.0709    0.7564    0.6849 H         1 <0>         0.1252
     45 H8          4.8215   -0.4343    0.2593 H         1 <0>         0.1740
     46 H9          3.1759   -1.8823   -0.7156 H         1 <0>         0.1632
     47 H10         4.3119    4.1892    4.3184 H         1 <0>         0.1537
     48 H11         6.6757    3.5357    4.4430 H         1 <0>         0.1554
     49 H12         6.5812   -1.8010    1.3888 H         1 <0>         0.1056
     50 H13         6.8780   -0.9829    2.9415 H         1 <0>         0.0547
     51 H14         5.2139   -1.3742    2.4455 H         1 <0>         0.0503
     52 H15         7.9854    0.9258    3.7908 H         1 <0>         0.3919
     53 H16        -0.3832    2.2471    1.3955 H         1 <0>         0.1453
     54 H17         1.9577    4.8326    2.7632 H         1 <0>         0.1458
     55 H18         1.2759    6.9043    3.8971 H         1 <0>         0.1390
     56 H19        -2.8081    5.6619    3.7593 H         1 <0>         0.1469
     57 H20        -2.4267    3.1567    1.4236 H         1 <0>         0.0646
     58 H21        -2.2441    2.3533    3.0014 H         1 <0>         0.0727
     59 H22        -5.7576    3.4194    2.6467 H         1 <0>         0.0979
     60 H23        -4.6800    2.5258    1.5473 H         1 <0>         0.0913
     61 H24        -5.2603    1.2036    5.4011 H         1 <0>         0.0871
     62 H25        -4.6787    2.8760    5.2194 H         1 <0>         0.0506
     63 H26        -6.3261    2.4453    4.7007 H         1 <0>         0.0472
     64 H27         0.5898   -0.9341   -4.3368 H         1 <0>         0.1083
     65 H28         0.2115   -2.4180   -3.4295 H         1 <0>         0.0846
     66 H29        -0.8017   -0.9686   -3.2274 H         1 <0>         0.0831
     67 H30         3.2449   -0.7177   -1.9631 H         1 <0>         0.1034
     68 H31         2.6333   -2.3813   -2.1265 H         1 <0>         0.0837
     69 H32         2.7562   -1.3334   -3.5601 H         1 <0>         0.1022
     70 H33         0.7243   -2.4101   -0.9834 H         1 <0>         0.4337
@<TRIPOS>BOND
     1    1    2 1
     2    1   38 1
     3    1   39 1
     4    1   40 1
     5    2    7 1
     6    2    3 2
     7    3    4 1
     8    3   41 1
     9    4    5 1
    10    4   36 1
    11    4   37 1
    12    5    6 1
    13    5   42 1
    14    5   70 1
    15    6   11 1
    16    6    7 1
    17    6   43 1
    18    7    8 1
    19    7   44 1
    20    8   22 1
    21    8    9 2
    22    9   10 1
    23    9   12 1
    24   10   11 2
    25   10   45 1
    26   11   46 1
    27   12   17 ar
    28   12   13 ar
    29   13   14 ar
    30   13   21 1
    31   14   15 ar
    32   14   47 1
    33   15   16 ar
    34   15   48 1
    35   16   17 ar
    36   16   20 1
    37   17   18 1
    38   18   19 1
    39   19   49 1
    40   19   50 1
    41   19   51 1
    42   20   52 1
    43   21   22 1
    44   22   23 2
    45   23   24 1
    46   23   53 1
    47   24   29 ar
    48   24   25 ar
    49   25   26 ar
    50   25   54 1
    51   26   27 ar
    52   26   55 1
    53   27   28 ar
    54   27   35 1
    55   28   29 ar
    56   28   56 1
    57   29   30 1
    58   30   31 1
    59   30   57 1
    60   30   58 1
    61   31   32 1
    62   32   33 1
    63   32   59 1
    64   32   60 1
    65   33   34 1
    66   34   61 1
    67   34   62 1
    68   34   63 1
    69   36   64 1
    70   36   65 1
    71   36   66 1
    72   37   67 1
    73   37   68 1
    74   37   69 1
@<TRIPOS>MOLECULE
CHEMBL233995__4
   69    73     0     0     0
SMALL
USER_CHARGES

@<TRIPOS>ATOM
      1 C1          0.0618    1.8598   -0.7792 C.3       1 <0>        -0.1245
      2 C2          0.0533    0.3714   -1.0149 C.2       1 <0>        -0.1008
      3 C3         -0.0050   -0.0611   -2.2377 C.2       1 <0>        -0.1425
      4 C4         -0.0245   -1.5212   -2.5891 C.3       1 <0>         0.1418
      5 N1          0.4739   -2.3184   -1.4614 N.3       1 <0>        -0.6636
      6 C5         -0.2424   -1.9671   -0.2263 C.3       1 <0>         0.1171
      7 C6          0.1188   -0.5418    0.1751 C.3       1 <0>         0.0148
      8 C7         -0.8036   -0.0442    1.2535 C.2       1 <0>        -0.1134
      9 C8         -2.1050   -0.4623    1.2830 C.2       1 <0>         0.0051
     10 C9         -2.5891   -1.4270    0.2893 C.2       1 <0>        -0.1411
     11 C10        -1.7214   -2.1232   -0.4390 C.2       1 <0>        -0.1593
     12 C11        -2.9914    0.0773    2.3305 C.ar      1 <0>        -0.1277
     13 C12        -2.4561    0.9693    3.2722 C.ar      1 <0>         0.1332
     14 C13        -3.2769    1.4874    4.2619 C.ar      1 <0>        -0.1264
     15 C14        -4.6102    1.1262    4.3213 C.ar      1 <0>        -0.0876
     16 C15        -5.1440    0.2430    3.3953 C.ar      1 <0>         0.0674
     17 C16        -4.3374   -0.2871    2.3952 C.ar      1 <0>         0.1238
     18 O1         -4.8557   -1.1544    1.4861 O.3       1 <0>        -0.3235
     19 C17        -4.8023   -2.5447    1.8122 C.3       1 <0>         0.0325
     20 O2         -6.4575   -0.1054    3.4660 O.3       1 <0>        -0.4864
     21 O3         -1.1502    1.3189    3.2170 O.3       1 <0>        -0.2168
     22 C18        -0.3447    0.8533    2.2396 C.2       1 <0>         0.1263
     23 C19         0.9525    1.2633    2.2044 C.2       1 <0>        -0.1748
     24 C20         1.4146    2.3172    3.1171 C.ar      1 <0>        -0.0401
     25 C21         0.5122    3.2692    3.6069 C.ar      1 <0>        -0.0763
     26 C22         0.9531    4.2548    4.4633 C.ar      1 <0>        -0.1523
     27 C23         2.2865    4.3052    4.8400 C.ar      1 <0>         0.0928
     28 C24         3.1857    3.3665    4.3588 C.ar      1 <0>        -0.1310
     29 C25         2.7582    2.3713    3.5061 C.ar      1 <0>        -0.0557
     30 C26         3.7362    1.3479    2.9890 C.3       1 <0>         0.1061
     31 O4          5.0333    1.6147    3.5260 O.3       1 <0>        -0.3974
     32 C27         6.0405    0.6967    3.0959 C.3       1 <0>         0.2135
     33 O5          6.4030    0.9863    1.7443 O.3       1 <0>        -0.4028
     34 C28         7.2223    2.1480    1.5984 C.3       1 <0>         0.0307
     35 F1          2.7115    5.2743    5.6799 F         1 <0>        -0.1404
     36 C29        -1.4578   -1.9452   -2.9159 C.3       1 <0>        -0.1874
     37 C30         0.8638   -1.7607   -3.8116 C.3       1 <0>        -0.1348
     38 H1          1.0901    2.2215   -0.7767 H         1 <0>         0.0701
     39 H2         -0.4961    2.3566   -1.5729 H         1 <0>         0.0614
     40 H3         -0.4024    2.0781    0.1826 H         1 <0>         0.0650
     41 H4         -0.0414    0.6622   -3.0389 H         1 <0>         0.1136
     42 H5          0.3980   -3.3058   -1.6551 H         1 <0>         0.3490
     43 H6          0.0742   -2.6401    0.5705 H         1 <0>         0.0972
     44 H7          1.1351   -0.5319    0.5689 H         1 <0>         0.1024
     45 H8         -3.6497   -1.5698    0.1440 H         1 <0>         0.1507
     46 H9         -2.0801   -2.8144   -1.1873 H         1 <0>         0.1366
     47 H10        -2.8732    2.1757    4.9897 H         1 <0>         0.1482
     48 H11        -5.2415    1.5355    5.0962 H         1 <0>         0.1490
     49 H12        -5.2482   -3.1248    1.0043 H         1 <0>         0.0992
     50 H13        -3.7637   -2.8469    1.9462 H         1 <0>         0.0517
     51 H14        -5.3544   -2.7229    2.7350 H         1 <0>         0.0551
     52 H15        -7.0453    0.4719    2.9597 H         1 <0>         0.3940
     53 H16         1.6421    0.8136    1.5054 H         1 <0>         0.1509
     54 H17        -0.5266    3.2314    3.3141 H         1 <0>         0.1390
     55 H18         0.2583    4.9900    4.8416 H         1 <0>         0.1344
     56 H19         4.2230    3.4124    4.6561 H         1 <0>         0.1433
     57 H20         3.4147    0.3519    3.2934 H         1 <0>         0.0698
     58 H21         3.7756    1.4003    1.9010 H         1 <0>         0.0748
     59 H22         6.9174    0.7934    3.7359 H         1 <0>         0.0943
     60 H23         5.6552   -0.3210    3.1586 H         1 <0>         0.0932
     61 H24         6.6903    3.0184    1.9823 H         1 <0>         0.0491
     62 H25         8.1480    2.0122    2.1577 H         1 <0>         0.0434
     63 H26         7.4537    2.2993    0.5441 H         1 <0>         0.0854
     64 H27        -1.6976   -1.6569   -3.9393 H         1 <0>         0.0616
     65 H28        -1.5495   -3.0263   -2.8119 H         1 <0>         0.0593
     66 H29        -2.1474   -1.4544   -2.2291 H         1 <0>         0.0761
     67 H30         1.8848   -1.4543   -3.5844 H         1 <0>         0.0656
     68 H31         0.8508   -2.8200   -4.0681 H         1 <0>         0.0568
     69 H32         0.4884   -1.1784   -4.6531 H         1 <0>         0.0615
@<TRIPOS>BOND
     1    1    2 1
     2    1   38 1
     3    1   39 1
     4    1   40 1
     5    2    7 1
     6    2    3 2
     7    3    4 1
     8    3   41 1
     9    4    5 1
    10    4   36 1
    11    4   37 1
    12    5    6 1
    13    5   42 1
    14    6   11 1
    15    6    7 1
    16    6   43 1
    17    7    8 1
    18    7   44 1
    19    8   22 1
    20    8    9 2
    21    9   10 1
    22    9   12 1
    23   10   11 2
    24   10   45 1
    25   11   46 1
    26   12   17 ar
    27   12   13 ar
    28   13   14 ar
    29   13   21 1
    30   14   15 ar
    31   14   47 1
    32   15   16 ar
    33   15   48 1
    34   16   17 ar
    35   16   20 1
    36   17   18 1
    37   18   19 1
    38   19   49 1
    39   19   50 1
    40   19   51 1
    41   20   52 1
    42   21   22 1
    43   22   23 2
    44   23   24 1
    45   23   53 1
    46   24   29 ar
    47   24   25 ar
    48   25   26 ar
    49   25   54 1
    50   26   27 ar
    51   26   55 1
    52   27   28 ar
    53   27   35 1
    54   28   29 ar
    55   28   56 1
    56   29   30 1
    57   30   31 1
    58   30   57 1
    59   30   58 1
    60   31   32 1
    61   32   33 1
    62   32   59 1
    63   32   60 1
    64   33   34 1
    65   34   61 1
    66   34   62 1
    67   34   63 1
    68   36   64 1
    69   36   65 1
    70   36   66 1
    71   37   67 1
    72   37   68 1
    73   37   69 1
@<TRIPOS>MOLECULE
CHEMBL233995__5
   70    74     0     0     0
SMALL
USER_CHARGES

@<TRIPOS>ATOM
      1 C1          0.0963    1.7274   -0.8085 C.3       1 <0>        -0.1343
      2 C2          0.0951    0.2461   -1.0858 C.2       1 <0>        -0.0797
      3 C3          0.0075   -0.1563   -2.3179 C.2       1 <0>        -0.1797
      4 C4         -0.0059   -1.6077   -2.7027 C.3       1 <0>         0.1026
      5 N1          0.5563   -2.4252   -1.6215 N.4       1 <0>        -0.4973
      6 C5         -0.1470   -2.1198   -0.3680 C.3       1 <0>         0.0756
      7 C6          0.2013   -0.7031    0.0737 C.3       1 <0>        -0.0215
      8 C7         -0.7092   -0.2555    1.1839 C.2       1 <0>        -0.1057
      9 C8         -2.0038   -0.6937    1.2213 C.2       1 <0>         0.0045
     10 C9         -2.4915   -1.6313    0.2035 C.2       1 <0>        -0.0696
     11 C10        -1.6269   -2.2900   -0.5626 C.2       1 <0>        -0.2106
     12 C11        -2.8793   -0.2031    2.3015 C.ar      1 <0>        -0.1418
     13 C12        -2.3408    0.6660    3.2627 C.ar      1 <0>         0.1392
     14 C13        -3.1515    1.1383    4.2832 C.ar      1 <0>        -0.1226
     15 C14        -4.4779    0.7542    4.3540 C.ar      1 <0>        -0.0753
     16 C15        -5.0146   -0.1066    3.4087 C.ar      1 <0>         0.0756
     17 C16        -4.2181   -0.5908    2.3777 C.ar      1 <0>         0.1252
     18 O1         -4.7395   -1.4358    1.4495 O.3       1 <0>        -0.3258
     19 C17        -4.6590   -2.8350    1.7281 C.3       1 <0>         0.0278
     20 O2         -6.3211   -0.4778    3.4907 O.3       1 <0>        -0.4840
     21 O3         -1.0416    1.0379    3.1964 O.3       1 <0>        -0.2105
     22 C18        -0.2460    0.6153    2.1916 C.2       1 <0>         0.1107
     23 C19         1.0451    1.0434    2.1496 C.2       1 <0>        -0.1524
     24 C20         1.5094    2.0701    3.0918 C.ar      1 <0>        -0.0591
     25 C21         0.6064    3.0017    3.6184 C.ar      1 <0>        -0.0686
     26 C22         1.0493    3.9617    4.5023 C.ar      1 <0>        -0.1530
     27 C23         2.3854    4.0066    4.8703 C.ar      1 <0>         0.1082
     28 C24         3.2852    3.0880    4.3528 C.ar      1 <0>        -0.1322
     29 C25         2.8557    2.1183    3.4721 C.ar      1 <0>        -0.0515
     30 C26         3.8343    1.1166    2.9154 C.3       1 <0>         0.1077
     31 O4          5.1343    1.3724    3.4508 O.3       1 <0>        -0.3942
     32 C27         6.1423    0.4734    2.9841 C.3       1 <0>         0.2130
     33 O5          6.4931    0.8075    1.6398 O.3       1 <0>        -0.4071
     34 C28         7.3060    1.9771    1.5247 C.3       1 <0>         0.0295
     35 F1          2.8124    4.9506    5.7373 F         1 <0>        -0.1339
     36 C29        -1.4463   -2.0469   -2.9734 C.3       1 <0>        -0.1842
     37 C30         0.8268   -1.8033   -3.9713 C.3       1 <0>        -0.1728
     38 H1          1.1208    2.0990   -0.8236 H         1 <0>         0.0859
     39 H2         -0.4877    2.2405   -1.5726 H         1 <0>         0.0782
     40 H3         -0.3435    1.9140    0.1713 H         1 <0>         0.0786
     41 H4         -0.0589    0.5857   -3.0998 H         1 <0>         0.1535
     42 H5          0.4409   -3.4027   -1.8432 H         1 <0>         0.4334
     43 H6          0.1900   -2.8118    0.4039 H         1 <0>         0.1519
     44 H7          1.2253   -0.6889    0.4470 H         1 <0>         0.1262
     45 H8         -3.5524   -1.7843    0.0711 H         1 <0>         0.1733
     46 H9         -1.9881   -2.9607   -1.3282 H         1 <0>         0.1653
     47 H10        -2.7453    1.8087    5.0261 H         1 <0>         0.1533
     48 H11        -5.1013    1.1277    5.1529 H         1 <0>         0.1555
     49 H12        -5.1105   -3.3951    0.9092 H         1 <0>         0.1040
     50 H13        -3.6135   -3.1249    1.8336 H         1 <0>         0.0480
     51 H14        -5.1915   -3.0524    2.6540 H         1 <0>         0.0621
     52 H15        -6.9267    0.1064    3.0142 H         1 <0>         0.3994
     53 H16         1.7282    0.6283    1.4234 H         1 <0>         0.1451
     54 H17        -0.4345    2.9682    3.3323 H         1 <0>         0.1393
     55 H18         0.3541    4.6812    4.9090 H         1 <0>         0.1390
     56 H19         4.3245    3.1295    4.6435 H         1 <0>         0.1469
     57 H20         3.5198    0.1098    3.1904 H         1 <0>         0.0667
     58 H21         3.8651    1.2037    1.8293 H         1 <0>         0.0704
     59 H22         7.0237    0.5540    3.6203 H         1 <0>         0.0981
     60 H23         5.7622   -0.5476    3.0175 H         1 <0>         0.0920
     61 H24         7.5285    2.1630    0.4740 H         1 <0>         0.0867
     62 H25         6.7729    2.8324    1.9400 H         1 <0>         0.0505
     63 H26         8.2365    1.8282    2.0723 H         1 <0>         0.0472
     64 H27        -1.7269   -1.7667   -3.9887 H         1 <0>         0.1024
     65 H28        -1.5238   -3.1282   -2.8603 H         1 <0>         0.0836
     66 H29        -2.1144   -1.5586   -2.2640 H         1 <0>         0.1040
     67 H30         1.8525   -1.4850   -3.7852 H         1 <0>         0.0833
     68 H31         0.8185   -2.8563   -4.2526 H         1 <0>         0.0846
     69 H32         0.4025   -1.2079   -4.7797 H         1 <0>         0.1083
     70 H33         1.5379   -2.2163   -1.5166 H         1 <0>         0.4311
@<TRIPOS>BOND
     1    1    2 1
     2    1   38 1
     3    1   39 1
     4    1   40 1
     5    2    7 1
     6    2    3 2
     7    3    4 1
     8    3   41 1
     9    4    5 1
    10    4   36 1
    11    4   37 1
    12    5    6 1
    13    5   42 1
    14    5   70 1
    15    6   11 1
    16    6    7 1
    17    6   43 1
    18    7    8 1
    19    7   44 1
    20    8   22 1
    21    8    9 2
    22    9   10 1
    23    9   12 1
    24   10   11 2
    25   10   45 1
    26   11   46 1
    27   12   17 ar
    28   12   13 ar
    29   13   14 ar
    30   13   21 1
    31   14   15 ar
    32   14   47 1
    33   15   16 ar
    34   15   48 1
    35   16   17 ar
    36   16   20 1
    37   17   18 1
    38   18   19 1
    39   19   49 1
    40   19   50 1
    41   19   51 1
    42   20   52 1
    43   21   22 1
    44   22   23 2
    45   23   24 1
    46   23   53 1
    47   24   29 ar
    48   24   25 ar
    49   25   26 ar
    50   25   54 1
    51   26   27 ar
    52   26   55 1
    53   27   28 ar
    54   27   35 1
    55   28   29 ar
    56   28   56 1
    57   29   30 1
    58   30   31 1
    59   30   57 1
    60   30   58 1
    61   31   32 1
    62   32   33 1
    63   32   59 1
    64   32   60 1
    65   33   34 1
    66   34   61 1
    67   34   62 1
    68   34   63 1
    69   36   64 1
    70   36   65 1
    71   36   66 1
    72   37   67 1
    73   37   68 1
    74   37   69 1
@<TRIPOS>MOLECULE
CHEMBL233995__6
   69    73     0     0     0
SMALL
USER_CHARGES

@<TRIPOS>ATOM
      1 C1          0.1138    1.5244   -0.2657 C.3       1 <0>        -0.1222
      2 C2          0.0799    0.0144   -0.1831 C.2       1 <0>        -0.1024
      3 C3          0.1282   -0.6476   -1.3102 C.2       1 <0>        -0.1793
      4 C4          0.0173   -2.1405   -1.3952 C.3       1 <0>         0.1434
      5 N1         -0.6268   -2.6678   -0.1822 N.3       1 <0>        -0.6606
      6 C5          0.0519   -2.1964    1.0122 C.3       1 <0>         0.1209
      7 C6         -0.0310   -0.6659    1.1258 C.3       1 <0>        -0.0335
      8 C7          0.8929   -0.2890    2.2321 C.2       1 <0>        -0.1007
      9 C8          0.7111   -1.0018    3.4152 C.2       1 <0>        -0.0125
     10 C9         -0.2502   -2.1112    3.4308 C.2       1 <0>        -0.1216
     11 C10        -0.5705   -2.7296    2.2829 C.2       1 <0>        -0.1205
     12 C11         1.4855   -0.5838    4.5943 C.ar      1 <0>        -0.1205
     13 C12         2.2463    0.5980    4.5122 C.ar      1 <0>         0.1267
     14 C13         2.9651    1.0416    5.6072 C.ar      1 <0>        -0.1279
     15 C14         2.9520    0.3189    6.7861 C.ar      1 <0>        -0.0895
     16 C15         2.2240   -0.8562    6.8752 C.ar      1 <0>         0.0638
     17 C16         1.4937   -1.3154    5.7824 C.ar      1 <0>         0.1246
     18 O1          0.8126   -2.4861    5.8950 O.3       1 <0>        -0.3258
     19 C17         1.5156   -3.6813    5.5498 C.3       1 <0>         0.0397
     20 O2          2.2207   -1.5676    8.0359 O.3       1 <0>        -0.4871
     21 O3          2.2882    1.2914    3.3435 O.3       1 <0>        -0.2299
     22 C18         1.9624    0.6065    2.2122 C.2       1 <0>         0.1093
     23 C19         2.7672    0.7521    1.1305 C.2       1 <0>        -0.1309
     24 C20         3.7725    1.8225    1.1018 C.ar      1 <0>        -0.0527
     25 C21         3.6713    2.9065    1.9823 C.ar      1 <0>        -0.0701
     26 C22         4.6185    3.9069    1.9498 C.ar      1 <0>        -0.1553
     27 C23         5.6699    3.8418    1.0483 C.ar      1 <0>         0.0993
     28 C24         5.7765    2.7721    0.1733 C.ar      1 <0>        -0.1334
     29 C25         4.8397    1.7611    0.1980 C.ar      1 <0>        -0.0510
     30 C26         4.9608    0.5957   -0.7498 C.3       1 <0>         0.1054
     31 O4          6.1234    0.7625   -1.5638 O.3       1 <0>        -0.3963
     32 C27         6.3320   -0.2942   -2.5028 C.3       1 <0>         0.2134
     33 O5          5.4043   -0.1627   -3.5818 O.3       1 <0>        -0.4024
     34 C28         5.7248    0.8848   -4.4994 C.3       1 <0>         0.0306
     35 F1          6.5949    4.8262    1.0222 F         1 <0>        -0.1388
     36 C29         1.4027   -2.7540   -1.5736 C.3       1 <0>        -0.1331
     37 C30        -0.8467   -2.5015   -2.6081 C.3       1 <0>        -0.1402
     38 H1          1.1465    1.8683   -0.2084 H         1 <0>         0.0743
     39 H2         -0.3246    1.8465   -1.2102 H         1 <0>         0.0644
     40 H3         -0.4562    1.9464    0.5621 H         1 <0>         0.0611
     41 H4          0.2538   -0.0900   -2.2229 H         1 <0>         0.1139
     42 H5         -1.6106   -2.4436   -0.1687 H         1 <0>         0.3482
     43 H6          1.0969   -2.4921    1.0099 H         1 <0>         0.0946
     44 H7         -1.0587   -0.4537    1.5015 H         1 <0>         0.0884
     45 H8         -0.7252   -2.4233    4.3488 H         1 <0>         0.1400
     46 H9         -1.2406   -3.5679    2.2579 H         1 <0>         0.1379
     47 H10         3.5387    1.9549    5.5442 H         1 <0>         0.1462
     48 H11         3.5113    0.6728    7.6387 H         1 <0>         0.1473
     49 H12         0.8588   -4.5408    5.6840 H         1 <0>         0.0983
     50 H13         1.8350   -3.6273    4.5090 H         1 <0>         0.0469
     51 H14         2.3892   -3.7877    6.1929 H         1 <0>         0.0525
     52 H15         1.5165   -1.3164    8.6491 H         1 <0>         0.3934
     53 H16         2.6689    0.0808    0.2901 H         1 <0>         0.1433
     54 H17         2.8527    2.9587    2.6848 H         1 <0>         0.1490
     55 H18         4.5416    4.7438    2.6281 H         1 <0>         0.1363
     56 H19         6.5978    2.7285   -0.5267 H         1 <0>         0.1445
     57 H20         5.0463   -0.3292   -0.1794 H         1 <0>         0.0684
     58 H21         4.0761    0.5505   -1.3849 H         1 <0>         0.0754
     59 H22         7.3495   -0.2407   -2.8899 H         1 <0>         0.0950
     60 H23         6.1812   -1.2541   -2.0090 H         1 <0>         0.0928
     61 H24         5.7411    1.8382   -3.9713 H         1 <0>         0.0490
     62 H25         6.7043    0.6960   -4.9387 H         1 <0>         0.0438
     63 H26         4.9734    0.9193   -5.2883 H         1 <0>         0.0855
     64 H27         2.0302   -2.4877   -0.7231 H         1 <0>         0.0510
     65 H28         1.3146   -3.8387   -1.6346 H         1 <0>         0.0670
     66 H29         1.8530   -2.3739   -2.4906 H         1 <0>         0.0645
     67 H30        -0.3816   -2.1130   -3.5141 H         1 <0>         0.0650
     68 H31        -0.9353   -3.5855   -2.6814 H         1 <0>         0.0678
     69 H32        -1.8377   -2.0630   -2.4916 H         1 <0>         0.0556
@<TRIPOS>BOND
     1    1    2 1
     2    1   38 1
     3    1   39 1
     4    1   40 1
     5    2    7 1
     6    2    3 2
     7    3    4 1
     8    3   41 1
     9    4    5 1
    10    4   36 1
    11    4   37 1
    12    5    6 1
    13    5   42 1
    14    6   11 1
    15    6    7 1
    16    6   43 1
    17    7    8 1
    18    7   44 1
    19    8   22 1
    20    8    9 2
    21    9   10 1
    22    9   12 1
    23   10   11 2
    24   10   45 1
    25   11   46 1
    26   12   17 ar
    27   12   13 ar
    28   13   14 ar
    29   13   21 1
    30   14   15 ar
    31   14   47 1
    32   15   16 ar
    33   15   48 1
    34   16   17 ar
    35   16   20 1
    36   17   18 1
    37   18   19 1
    38   19   49 1
    39   19   50 1
    40   19   51 1
    41   20   52 1
    42   21   22 1
    43   22   23 2
    44   23   24 1
    45   23   53 1
    46   24   29 ar
    47   24   25 ar
    48   25   26 ar
    49   25   54 1
    50   26   27 ar
    51   26   55 1
    52   27   28 ar
    53   27   35 1
    54   28   29 ar
    55   28   56 1
    56   29   30 1
    57   30   31 1
    58   30   57 1
    59   30   58 1
    60   31   32 1
    61   32   33 1
    62   32   59 1
    63   32   60 1
    64   33   34 1
    65   34   61 1
    66   34   62 1
    67   34   63 1
    68   36   64 1
    69   36   65 1
    70   36   66 1
    71   37   67 1
    72   37   68 1
    73   37   69 1
@<TRIPOS>MOLECULE
CHEMBL233995__7
   70    74     0     0     0
SMALL
USER_CHARGES

@<TRIPOS>ATOM
      1 C1          0.1148    1.5291   -0.2631 C.3       1 <0>        -0.1326
      2 C2          0.0790    0.0193   -0.1832 C.2       1 <0>        -0.0727
      3 C3          0.1284   -0.6429   -1.3105 C.2       1 <0>        -0.1884
      4 C4          0.0098   -2.1343   -1.3976 C.3       1 <0>         0.1011
      5 N1         -0.6449   -2.6640   -0.1920 N.4       1 <0>        -0.4880
      6 C5          0.0515   -2.1971    0.9941 C.3       1 <0>         0.0520
      7 C6         -0.0335   -0.6678    1.1237 C.3       1 <0>        -0.0092
      8 C7          0.8994   -0.2990    2.2256 C.2       1 <0>        -0.0994
      9 C8          0.7436   -1.0338    3.3991 C.2       1 <0>        -0.0118
     10 C9         -0.2148   -2.1458    3.4172 C.2       1 <0>        -0.0390
     11 C10        -0.5517   -2.7485    2.2666 C.2       1 <0>        -0.2085
     12 C11         1.5424   -0.6380    4.5696 C.ar      1 <0>        -0.1371
     13 C12         2.2728    0.5640    4.5072 C.ar      1 <0>         0.1334
     14 C13         3.0089    0.9896    5.5972 C.ar      1 <0>        -0.1241
     15 C14         3.0472    0.2258    6.7500 C.ar      1 <0>        -0.0765
     16 C15         2.3531   -0.9713    6.8171 C.ar      1 <0>         0.0703
     17 C16         1.6026   -1.4101    5.7298 C.ar      1 <0>         0.1272
     18 O1          0.9544   -2.6015    5.8174 O.3       1 <0>        -0.3283
     19 C17         1.6773   -3.7648    5.4098 C.3       1 <0>         0.0373
     20 O2          2.4038   -1.7240    7.9502 O.3       1 <0>        -0.4850
     21 O3          2.2694    1.2891    3.3566 O.3       1 <0>        -0.2238
     22 C18         1.9545    0.6140    2.2151 C.2       1 <0>         0.0865
     23 C19         2.7584    0.7870    1.1374 C.2       1 <0>        -0.1029
     24 C20         3.7450    1.8751    1.1241 C.ar      1 <0>        -0.0737
     25 C21         3.6231    2.9461    2.0178 C.ar      1 <0>        -0.0610
     26 C22         4.5529    3.9632    1.9998 C.ar      1 <0>        -0.1570
     27 C23         5.6070    3.9277    1.0998 C.ar      1 <0>         0.1158
     28 C24         5.7339    2.8709    0.2119 C.ar      1 <0>        -0.1352
     29 C25         4.8149    1.8435    0.2220 C.ar      1 <0>        -0.0454
     30 C26         4.9581    0.6923   -0.7400 C.3       1 <0>         0.1063
     31 O4          6.1192    0.8895   -1.5493 O.3       1 <0>        -0.3934
     32 C27         6.3480   -0.1516   -2.5010 C.3       1 <0>         0.2130
     33 O5          5.4203   -0.0229   -3.5802 O.3       1 <0>        -0.4066
     34 C28         5.7242    1.0414   -4.4841 C.3       1 <0>         0.0293
     35 F1          6.5147    4.9283    1.0880 F         1 <0>        -0.1321
     36 C29         1.3905   -2.7566   -1.5762 C.3       1 <0>        -0.1716
     37 C30        -0.8527   -2.4857   -2.6154 C.3       1 <0>        -0.1736
     38 H1          1.1479    1.8717   -0.2047 H         1 <0>         0.0902
     39 H2         -0.3227    1.8534   -1.2074 H         1 <0>         0.0809
     40 H3         -0.4552    1.9504    0.5650 H         1 <0>         0.0764
     41 H4          0.2627   -0.0850   -2.2222 H         1 <0>         0.1552
     42 H5         -1.6081   -2.3516   -0.1721 H         1 <0>         0.4303
     43 H6          1.0967   -2.4898    0.9760 H         1 <0>         0.1480
     44 H7         -1.0593   -0.4577    1.5039 H         1 <0>         0.1200
     45 H8         -0.6714   -2.4705    4.3404 H         1 <0>         0.1605
     46 H9         -1.2212   -3.5872    2.2394 H         1 <0>         0.1566
     47 H10         3.5549    1.9207    5.5532 H         1 <0>         0.1516
     48 H11         3.6207    0.5643    7.5991 H         1 <0>         0.1535
     49 H12         1.0461   -4.6454    5.5298 H         1 <0>         0.1015
     50 H13         1.9665   -3.6649    4.3637 H         1 <0>         0.0420
     51 H14         2.5706   -3.8716    6.0252 H         1 <0>         0.0590
     52 H15         1.7124   -1.5144    8.5929 H         1 <0>         0.3988
     53 H16         2.6735    0.1248    0.2885 H         1 <0>         0.1404
     54 H17         2.8024    2.9753    2.7192 H         1 <0>         0.1502
     55 H18         4.4600    4.7901    2.6883 H         1 <0>         0.1409
     56 H19         6.5572    2.8503   -0.4868 H         1 <0>         0.1481
     57 H20         5.0586   -0.2380   -0.1810 H         1 <0>         0.0660
     58 H21         4.0755    0.6396   -1.3775 H         1 <0>         0.0721
     59 H22         7.3652   -0.0756   -2.8852 H         1 <0>         0.0985
     60 H23         6.2130   -1.1201   -2.0194 H         1 <0>         0.0919
     61 H24         4.9739    1.0726   -5.2741 H         1 <0>         0.0868
     62 H25         5.7229    1.9883   -3.9441 H         1 <0>         0.0505
     63 H26         6.7078    0.8751   -4.9235 H         1 <0>         0.0473
     64 H27         2.0196   -2.4956   -0.7252 H         1 <0>         0.0773
     65 H28         1.2952   -3.8407   -1.6386 H         1 <0>         0.0860
     66 H29         1.8437   -2.3785   -2.4926 H         1 <0>         0.1123
     67 H30        -0.3816   -2.0975   -3.5185 H         1 <0>         0.1100
     68 H31        -0.9485   -3.5688   -2.6924 H         1 <0>         0.0852
     69 H32        -1.8412   -2.0408   -2.5012 H         1 <0>         0.0840
     70 H33        -0.6348   -3.6756   -0.2244 H         1 <0>         0.4325
@<TRIPOS>BOND
     1    1    2 1
     2    1   38 1
     3    1   39 1
     4    1   40 1
     5    2    7 1
     6    2    3 2
     7    3    4 1
     8    3   41 1
     9    4    5 1
    10    4   36 1
    11    4   37 1
    12    5    6 1
    13    5   42 1
    14    5   70 1
    15    6   11 1
    16    6    7 1
    17    6   43 1
    18    7    8 1
    19    7   44 1
    20    8   22 1
    21    8    9 2
    22    9   10 1
    23    9   12 1
    24   10   11 2
    25   10   45 1
    26   11   46 1
    27   12   17 ar
    28   12   13 ar
    29   13   14 ar
    30   13   21 1
    31   14   15 ar
    32   14   47 1
    33   15   16 ar
    34   15   48 1
    35   16   17 ar
    36   16   20 1
    37   17   18 1
    38   18   19 1
    39   19   49 1
    40   19   50 1
    41   19   51 1
    42   20   52 1
    43   21   22 1
    44   22   23 2
    45   23   24 1
    46   23   53 1
    47   24   29 ar
    48   24   25 ar
    49   25   26 ar
    50   25   54 1
    51   26   27 ar
    52   26   55 1
    53   27   28 ar
    54   27   35 1
    55   28   29 ar
    56   28   56 1
    57   29   30 1
    58   30   31 1
    59   30   57 1
    60   30   58 1
    61   31   32 1
    62   32   33 1
    63   32   59 1
    64   32   60 1
    65   33   34 1
    66   34   61 1
    67   34   62 1
    68   34   63 1
    69   36   64 1
    70   36   65 1
    71   36   66 1
    72   37   67 1
    73   37   68 1
    74   37   69 1
@<TRIPOS>MOLECULE
CHEMBL1215409
   49    53     0     0     0
SMALL
USER_CHARGES

@<TRIPOS>ATOM
      1 C1          1.8325    0.9177   -3.7588 C.ar      1 <0>        -0.0924
      2 C2          2.6327    1.6503   -2.9269 C.ar      1 <0>        -0.0918
      3 C3          3.2878    1.0244   -1.8695 C.ar      1 <0>        -0.0473
      4 C4          3.1500   -0.3542   -1.6417 C.ar      1 <0>        -0.0692
      5 C5          2.3398   -1.0796   -2.4743 C.ar      1 <0>        -0.0896
      6 C6          1.6773   -0.4555   -3.5357 C.ar      1 <0>        -0.1069
      7 C7          0.8110   -1.2476   -4.4242 C.2       1 <0>         0.5157
      8 O1          0.2295   -0.7054   -5.3541 O.co2     1 <0>        -0.6834
      9 O2          0.6726   -2.4480   -4.2327 O.co2     1 <0>        -0.6846
     10 C8          3.8750   -1.0589   -0.5304 C.3       1 <0>        -0.0786
     11 C9          4.3747   -0.1190    0.5651 C.3       1 <0>        -0.1168
     12 C10         5.1581    1.0249   -0.0777 C.3       1 <0>        -0.1033
     13 H1          5.9855    0.6467   -0.6782 H         1 <0>         0.1069
     14 C11         4.1449    1.7769   -0.9377 C.2       1 <0>         0.1458
     15 N1          4.2042    3.0233   -0.6650 N.2       1 <0>        -0.2315
     16 N2          5.0521    3.3308    0.4018 N.pl3     1 <0>        -0.4928
     17 C12         5.6396    2.0665    0.9340 C.3       1 <0>         0.1355
     18 H2          6.7285    2.1131    0.9489 H         1 <0>         0.0928
     19 C13         5.0923    1.7571    2.3289 C.3       1 <0>        -0.1003
     20 C14         5.5934    2.7910    3.3637 C.3       1 <0>        -0.1031
     21 C15         4.4203    3.0051    4.2918 C.2       1 <0>        -0.1698
     22 C16         3.3133    2.5637    3.7595 C.2       1 <0>        -0.1595
     23 C17         3.5635    1.9817    2.3877 C.3       1 <0>        -0.1044
     24 C18         5.3162    4.6081    0.8846 C.ar      1 <0>         0.2767
     25 C19         6.6315    5.0075    1.1101 C.ar      1 <0>        -0.1561
     26 C20         6.8971    6.2704    1.5872 C.ar      1 <0>        -0.0306
     27 C21         5.8448    7.1544    1.8461 C.ar      1 <0>        -0.0554
     28 C22         4.5244    6.7508    1.6187 C.ar      1 <0>         0.0353
     29 C23         4.2661    5.4862    1.1357 C.ar      1 <0>        -0.1315
     30 Cl1         3.2139    7.8435    1.9388 Cl        1 <0>        -0.0486
     31 C24         6.1178    8.4693    2.3431 C.1       1 <0>         0.2566
     32 N3          6.3345    9.5125    2.7374 N.1       1 <0>        -0.4098
     33 H3          1.3198    1.3961   -4.5802 H         1 <0>         0.1322
     34 H4          2.7566    2.7107   -3.0895 H         1 <0>         0.1228
     35 H5          2.2120   -2.1393   -2.3101 H         1 <0>         0.1310
     36 H6          3.2014   -1.7895   -0.0827 H         1 <0>         0.0800
     37 H7          4.7293   -1.5886   -0.9520 H         1 <0>         0.0761
     38 H8          3.5244    0.2851    1.1145 H         1 <0>         0.0882
     39 H9          5.0240   -0.6672    1.2476 H         1 <0>         0.0748
     40 H10         5.3507    0.7424    2.6319 H         1 <0>         0.0979
     41 H11         6.4460    2.3941    3.9148 H         1 <0>         0.0692
     42 H12         5.8613    3.7245    2.8688 H         1 <0>         0.0807
     43 H13         4.4889    3.4629    5.2675 H         1 <0>         0.1202
     44 H14         2.3456    2.6084    4.2369 H         1 <0>         0.1211
     45 H15         3.2530    2.6845    1.6146 H         1 <0>         0.0857
     46 H16         3.0359    1.0345    2.2751 H         1 <0>         0.0791
     47 H17         7.4441    4.3246    0.9105 H         1 <0>         0.1403
     48 H18         7.9173    6.5786    1.7619 H         1 <0>         0.1454
     49 H19         3.2478    5.1749    0.9555 H         1 <0>         0.1472
@<TRIPOS>BOND
     1    1    6 ar
     2    1    2 ar
     3    1   33 1
     4    2    3 ar
     5    2   34 1
     6    3   14 1
     7    3    4 ar
     8    4    5 ar
     9    4   10 1
    10    5    6 ar
    11    5   35 1
    12    6    7 1
    13    7    8 2
    14    7    9 1
    15   10   11 1
    16   10   36 1
    17   10   37 1
    18   11   12 1
    19   11   38 1
    20   11   39 1
    21   12   13 1
    22   12   17 1
    23   12   14 1
    24   14   15 2
    25   15   16 1
    26   16   17 1
    27   16   24 1
    28   17   18 1
    29   17   19 1
    30   19   23 1
    31   19   20 1
    32   19   40 1
    33   20   21 1
    34   20   41 1
    35   20   42 1
    36   21   22 2
    37   21   43 1
    38   22   23 1
    39   22   44 1
    40   23   45 1
    41   23   46 1
    42   24   29 ar
    43   24   25 ar
    44   25   26 ar
    45   25   47 1
    46   26   27 ar
    47   26   48 1
    48   27   28 ar
    49   27   31 1
    50   28   29 ar
    51   28   30 1
    52   29   49 1
    53   31   32 3
@<TRIPOS>MOLECULE
CHEMBL1215410
   49    53     0     0     0
SMALL
USER_CHARGES

@<TRIPOS>ATOM
      1 C1          0.2562    1.9167   -1.7802 C.ar      1 <0>        -0.0933
      2 C2          1.4427    2.4764   -1.3955 C.ar      1 <0>        -0.0912
      3 C3          2.4574    1.6675   -0.8905 C.ar      1 <0>        -0.0492
      4 C4          2.2906    0.2782   -0.7740 C.ar      1 <0>        -0.0673
      5 C5          1.0960   -0.2738   -1.1535 C.ar      1 <0>        -0.0901
      6 C6          0.0728    0.5344   -1.6584 C.ar      1 <0>        -0.1064
      7 C7         -1.2056   -0.0725   -2.0644 C.2       1 <0>         0.5159
      8 O1         -2.1035    0.6311   -2.5067 O.co2     1 <0>        -0.6836
      9 O2         -1.3701   -1.2803   -1.9596 O.co2     1 <0>        -0.6844
     10 C8          3.3828   -0.6200   -0.2668 C.3       1 <0>        -0.0794
     11 C9          4.4654    0.1184    0.5180 C.3       1 <0>        -0.0984
     12 C10         4.9550    1.3088   -0.3058 C.3       1 <0>        -0.0989
     13 H1          5.3255    0.9880   -1.2794 H         1 <0>         0.1073
     14 C11         3.7446    2.2290   -0.4470 C.2       1 <0>         0.1472
     15 N1          4.0764    3.4154   -0.1098 N.2       1 <0>        -0.2334
     16 N2          5.3707    3.5176    0.4060 N.pl3     1 <0>        -0.4939
     17 C12         5.9923    2.1612    0.4275 C.3       1 <0>         0.1186
     18 H2          6.9425    2.1542   -0.1067 H         1 <0>         0.0927
     19 C13         6.1761    1.6695    1.8646 C.3       1 <0>         0.0787
     20 C14         7.1506    2.6014    2.6164 C.3       1 <0>        -0.1530
     21 C15         7.9776    1.5977    3.4654 C.3       1 <0>        -0.1547
     22 C16         8.0295    0.3782    2.5110 C.3       1 <0>         0.0459
     23 O3          6.7495    0.3569    1.8595 O.3       1 <0>        -0.3629
     24 C17         5.9863    4.6932    0.8224 C.ar      1 <0>         0.2727
     25 C18         7.2765    4.9924    0.3908 C.ar      1 <0>        -0.1546
     26 C19         7.8890    6.1545    0.8001 C.ar      1 <0>        -0.0302
     27 C20         7.2150    7.0366    1.6507 C.ar      1 <0>        -0.0535
     28 C21         5.9190    6.7337    2.0829 C.ar      1 <0>         0.0338
     29 C22         5.3098    5.5705    1.6646 C.ar      1 <0>        -0.1334
     30 Cl1         5.0777    7.8245    3.1393 Cl        1 <0>        -0.0474
     31 C23         7.8499    8.2467    2.0789 C.1       1 <0>         0.2557
     32 N3          8.3536    9.2066    2.4185 N.1       1 <0>        -0.4082
     33 H3         -0.5361    2.5376   -2.1715 H         1 <0>         0.1324
     34 H4          1.5927    3.5424   -1.4833 H         1 <0>         0.1228
     35 H5          0.9435   -1.3391   -1.0622 H         1 <0>         0.1315
     36 H6          2.9395   -1.3779    0.3790 H         1 <0>         0.0801
     37 H7          3.8474   -1.1188   -1.1173 H         1 <0>         0.0767
     38 H8          4.0529    0.4736    1.4624 H         1 <0>         0.0662
     39 H9          5.2985   -0.5567    0.7137 H         1 <0>         0.0946
     40 H10         5.2130    1.6503    2.3747 H         1 <0>         0.0889
     41 H11         7.7915    3.1381    1.9169 H         1 <0>         0.0798
     42 H12         6.6070    3.2957    3.2571 H         1 <0>         0.0828
     43 H13         8.9774    1.9829    3.6654 H         1 <0>         0.0829
     44 H14         7.4616    1.3491    4.3927 H         1 <0>         0.0788
     45 H15         8.8254    0.5057    1.7772 H         1 <0>         0.0599
     46 H16         8.1806   -0.5401    3.0784 H         1 <0>         0.0870
     47 H17         7.7970    4.3109   -0.2658 H         1 <0>         0.1398
     48 H18         8.8895    6.3851    0.4650 H         1 <0>         0.1457
     49 H19         4.3079    5.3376    1.9938 H         1 <0>         0.1490
@<TRIPOS>BOND
     1    1    6 ar
     2    1    2 ar
     3    1   33 1
     4    2    3 ar
     5    2   34 1
     6    3   14 1
     7    3    4 ar
     8    4    5 ar
     9    4   10 1
    10    5    6 ar
    11    5   35 1
    12    6    7 1
    13    7    8 2
    14    7    9 1
    15   10   11 1
    16   10   36 1
    17   10   37 1
    18   11   12 1
    19   11   38 1
    20   11   39 1
    21   12   13 1
    22   12   17 1
    23   12   14 1
    24   14   15 2
    25   15   16 1
    26   16   17 1
    27   16   24 1
    28   17   18 1
    29   17   19 1
    30   19   23 1
    31   19   20 1
    32   19   40 1
    33   20   21 1
    34   20   41 1
    35   20   42 1
    36   21   22 1
    37   21   43 1
    38   21   44 1
    39   22   23 1
    40   22   45 1
    41   22   46 1
    42   24   29 ar
    43   24   25 ar
    44   25   26 ar
    45   25   47 1
    46   26   27 ar
    47   26   48 1
    48   27   28 ar
    49   27   31 1
    50   28   29 ar
    51   28   30 1
    52   29   49 1
    53   31   32 3
@<TRIPOS>MOLECULE
CHEMBL1215410__1
   49    53     0     0     0
SMALL
USER_CHARGES

@<TRIPOS>ATOM
      1 C1          0.0653    1.5504   -0.9254 C.ar      1 <0>        -0.0918
      2 C2          1.2602    2.1951   -0.7651 C.ar      1 <0>        -0.0891
      3 C3          2.3922    1.4721   -0.3981 C.ar      1 <0>        -0.0505
      4 C4          2.3351    0.0840   -0.1951 C.ar      1 <0>        -0.0696
      5 C5          1.1326   -0.5532   -0.3492 C.ar      1 <0>        -0.0893
      6 C6         -0.0078    0.1686   -0.7147 C.ar      1 <0>        -0.1047
      7 C7         -1.2937   -0.5293   -0.8789 C.2       1 <0>         0.5156
      8 O1         -2.2940    0.0984   -1.1986 O.co2     1 <0>        -0.6822
      9 O2         -1.3619   -1.7371   -0.6957 O.co2     1 <0>        -0.6841
     10 C8          3.5496   -0.7236    0.1653 C.3       1 <0>        -0.0783
     11 C9          4.6951    0.1150    0.7290 C.3       1 <0>        -0.1147
     12 C10         4.9691    1.2849   -0.2152 C.3       1 <0>        -0.1044
     13 H1          5.1978    0.9334   -1.2213 H         1 <0>         0.1148
     14 C11         3.6957    2.1274   -0.1965 C.2       1 <0>         0.1527
     15 N1          4.0012    3.3468    0.0295 N.2       1 <0>        -0.2380
     16 N2          5.3525    3.5484    0.3213 N.pl3     1 <0>        -0.4646
     17 C12         6.0545    2.2317    0.3002 C.3       1 <0>         0.1227
     18 H2          6.9048    2.2490   -0.3816 H         1 <0>         0.1002
     19 C13         6.4979    1.8288    1.7080 C.3       1 <0>         0.0727
     20 C14         7.3946    0.5665    1.6487 C.3       1 <0>        -0.1575
     21 C15         8.2116    0.7235    2.9602 C.3       1 <0>        -0.1549
     22 C16         8.3647    2.2558    3.0694 C.3       1 <0>         0.0483
     23 O3          7.3276    2.8517    2.2813 O.3       1 <0>        -0.3656
     24 C17         5.9511    4.7770    0.5794 C.ar      1 <0>         0.2925
     25 C18         7.3398    4.8787    0.6185 C.ar      1 <0>        -0.1523
     26 C19         7.9359    6.0923    0.8730 C.ar      1 <0>        -0.0192
     27 C20         7.1462    7.2255    1.0927 C.ar      1 <0>        -0.0834
     28 C21         5.7514    7.1207    1.0528 C.ar      1 <0>         0.0463
     29 C22         5.1613    5.9029    0.7921 C.ar      1 <0>        -0.1618
     30 Cl1         4.7660    8.5237    1.3253 Cl        1 <0>        -0.0545
     31 C23         7.7636    8.4900    1.3582 C.1       1 <0>         0.2630
     32 N3          8.2534    9.4931    1.5689 N.1       1 <0>        -0.4237
     33 H3         -0.8175    2.1045   -1.2084 H         1 <0>         0.1336
     34 H4          1.3260    3.2615   -0.9230 H         1 <0>         0.1242
     35 H5          1.0648   -1.6189   -0.1876 H         1 <0>         0.1321
     36 H6          3.2650   -1.4693    0.9076 H         1 <0>         0.0824
     37 H7          3.9021   -1.2407   -0.7271 H         1 <0>         0.0793
     38 H8          4.4182    0.4968    1.7117 H         1 <0>         0.0736
     39 H9          5.5900   -0.5013    0.8150 H         1 <0>         0.0875
     40 H10         5.6288    1.6479    2.3404 H         1 <0>         0.0824
     41 H11         6.7942   -0.3430    1.6664 H         1 <0>         0.0992
     42 H12         8.0461    0.5881    0.7751 H         1 <0>         0.0828
     43 H13         7.6583    0.3272    3.8116 H         1 <0>         0.0777
     44 H14         9.1853    0.2418    2.8707 H         1 <0>         0.0832
     45 H15         8.2621    2.5644    4.1098 H         1 <0>         0.0676
     46 H16         9.3396    2.5582    2.6872 H         1 <0>         0.0698
     47 H17         7.9494    4.0035    0.4492 H         1 <0>         0.1403
     48 H18         9.0127    6.1697    0.9034 H         1 <0>         0.1401
     49 H19         4.0849    5.8215    0.7566 H         1 <0>         0.1495
@<TRIPOS>BOND
     1    1    6 ar
     2    1    2 ar
     3    1   33 1
     4    2    3 ar
     5    2   34 1
     6    3   14 1
     7    3    4 ar
     8    4    5 ar
     9    4   10 1
    10    5    6 ar
    11    5   35 1
    12    6    7 1
    13    7    8 2
    14    7    9 1
    15   10   11 1
    16   10   36 1
    17   10   37 1
    18   11   12 1
    19   11   38 1
    20   11   39 1
    21   12   13 1
    22   12   17 1
    23   12   14 1
    24   14   15 2
    25   15   16 1
    26   16   17 1
    27   16   24 1
    28   17   18 1
    29   17   19 1
    30   19   23 1
    31   19   20 1
    32   19   40 1
    33   20   21 1
    34   20   41 1
    35   20   42 1
    36   21   22 1
    37   21   43 1
    38   21   44 1
    39   22   23 1
    40   22   45 1
    41   22   46 1
    42   24   29 ar
    43   24   25 ar
    44   25   26 ar
    45   25   47 1
    46   26   27 ar
    47   26   48 1
    48   27   28 ar
    49   27   31 1
    50   28   29 ar
    51   28   30 1
    52   29   49 1
    53   31   32 3
@<TRIPOS>MOLECULE
CHEMBL1215408
   48    52     0     0     0
SMALL
USER_CHARGES

@<TRIPOS>ATOM
      1 C1          0.3841    1.0947   -1.8274 C.ar      1 <0>        -0.0923
      2 C2          1.4770    1.8239   -1.4491 C.ar      1 <0>        -0.0920
      3 C3          2.5859    1.1779   -0.9089 C.ar      1 <0>        -0.0469
      4 C4          2.6100   -0.2170   -0.7502 C.ar      1 <0>        -0.0695
      5 C5          1.5080   -0.9394   -1.1236 C.ar      1 <0>        -0.0895
      6 C6          0.3907   -0.2954   -1.6637 C.ar      1 <0>        -0.1073
      7 C7         -0.7864   -1.0845   -2.0628 C.2       1 <0>         0.5158
      8 O1         -1.7662   -0.5250   -2.5359 O.co2     1 <0>        -0.6834
      9 O2         -0.7848   -2.2998   -1.9214 O.co2     1 <0>        -0.6847
     10 C8          3.8081   -0.9405   -0.2042 C.3       1 <0>        -0.0791
     11 C9          4.7679   -0.0368    0.5674 C.3       1 <0>        -0.1011
     12 C10         5.1007    1.1845   -0.2889 C.3       1 <0>        -0.1036
     13 H1          5.5254    0.8887   -1.2482 H         1 <0>         0.1058
     14 C11         3.7775    1.9245   -0.4709 C.2       1 <0>         0.1463
     15 N1          3.9383    3.1549   -0.1681 N.2       1 <0>        -0.2317
     16 N2          5.1990    3.4498    0.3567 N.pl3     1 <0>        -0.4920
     17 C12         6.0008    2.1933    0.4271 C.3       1 <0>         0.1359
     18 H2          6.9502    2.3012   -0.0973 H         1 <0>         0.0913
     19 C13         6.2302    1.7749    1.8808 C.3       1 <0>        -0.1208
     20 C14         5.1105    2.2231    2.8349 C.3       1 <0>        -0.1350
     21 C15         6.2158    2.5453    3.8544 C.3       1 <0>        -0.1399
     22 C16         7.1616    2.7226    2.6549 C.3       1 <0>        -0.1408
     23 C17         5.6414    4.7110    0.7418 C.ar      1 <0>         0.2764
     24 C18         6.8878    5.1685    0.3206 C.ar      1 <0>        -0.1552
     25 C19         7.3290    6.4156    0.6989 C.ar      1 <0>        -0.0298
     26 C20         6.5247    7.2251    1.5075 C.ar      1 <0>        -0.0561
     27 C21         5.2730    6.7631    1.9292 C.ar      1 <0>         0.0351
     28 C22         4.8353    5.5150    1.5421 C.ar      1 <0>        -0.1360
     29 Cl1         4.2705    7.7631    2.9336 Cl        1 <0>        -0.0484
     30 C23         6.9813    8.5233    1.9033 C.1       1 <0>         0.2565
     31 N3          7.3434    9.5533    2.2173 N.1       1 <0>        -0.4096
     32 H3         -0.4805    1.5886   -2.2458 H         1 <0>         0.1323
     33 H4          1.4803    2.8972   -1.5691 H         1 <0>         0.1228
     34 H5          1.5021   -2.0123   -1.0002 H         1 <0>         0.1310
     35 H6          3.4641   -1.7326    0.4609 H         1 <0>         0.0799
     36 H7          4.3487   -1.3958   -1.0339 H         1 <0>         0.0766
     37 H8          4.2974    0.2864    1.4960 H         1 <0>         0.0758
     38 H9          5.6830   -0.5845    0.7924 H         1 <0>         0.0744
     39 H10         6.4962    0.7226    1.9815 H         1 <0>         0.1077
     40 H11         4.5669    3.1019    2.4879 H         1 <0>         0.0893
     41 H12         4.4518    1.4125    3.1465 H         1 <0>         0.0659
     42 H13         6.0407    3.4654    4.4121 H         1 <0>         0.0654
     43 H14         6.4770    1.7036    4.4958 H         1 <0>         0.0782
     44 H15         8.1588    2.3151    2.8213 H         1 <0>         0.0666
     45 H16         7.1788    3.7378    2.2587 H         1 <0>         0.0828
     46 H17         7.5090    4.5432   -0.3035 H         1 <0>         0.1401
     47 H18         8.2958    6.7690    0.3720 H         1 <0>         0.1453
     48 H19         3.8675    5.1590    1.8632 H         1 <0>         0.1479
@<TRIPOS>BOND
     1    1    6 ar
     2    1    2 ar
     3    1   32 1
     4    2    3 ar
     5    2   33 1
     6    3   14 1
     7    3    4 ar
     8    4    5 ar
     9    4   10 1
    10    5    6 ar
    11    5   34 1
    12    6    7 1
    13    7    8 2
    14    7    9 1
    15   10   11 1
    16   10   35 1
    17   10   36 1
    18   11   12 1
    19   11   37 1
    20   11   38 1
    21   12   13 1
    22   12   17 1
    23   12   14 1
    24   14   15 2
    25   15   16 1
    26   16   17 1
    27   16   23 1
    28   17   18 1
    29   17   19 1
    30   19   22 1
    31   19   20 1
    32   19   39 1
    33   20   21 1
    34   20   40 1
    35   20   41 1
    36   21   22 1
    37   21   42 1
    38   21   43 1
    39   22   44 1
    40   22   45 1
    41   23   28 ar
    42   23   24 ar
    43   24   25 ar
    44   24   46 1
    45   25   26 ar
    46   25   47 1
    47   26   27 ar
    48   26   30 1
    49   27   28 ar
    50   27   29 1
    51   28   48 1
    52   30   31 3
@<TRIPOS>MOLECULE
CHEMBL1215411
   48    52     0     0     0
SMALL
USER_CHARGES

@<TRIPOS>ATOM
      1 C1         -0.0812    1.7694   -0.1325 C.ar      1 <0>        -0.0932
      2 C2          1.1435    2.3753   -0.0850 C.ar      1 <0>        -0.0887
      3 C3          2.3000    1.6010   -0.1260 C.ar      1 <0>        -0.0531
      4 C4          2.2361    0.2018   -0.2237 C.ar      1 <0>        -0.0664
      5 C5          1.0055   -0.3982   -0.2621 C.ar      1 <0>        -0.0901
      6 C6         -0.1590    0.3745   -0.2182 C.ar      1 <0>        -0.1036
      7 C7         -1.4753   -0.2834   -0.2623 C.2       1 <0>         0.5155
      8 O1         -2.4968    0.3890   -0.2241 O.co2     1 <0>        -0.6827
      9 O2         -1.5478   -1.5024   -0.3372 O.co2     1 <0>        -0.6836
     10 C8          3.4690   -0.6527   -0.3064 C.3       1 <0>        -0.0794
     11 C9          4.7342    0.0525    0.1784 C.3       1 <0>        -0.1027
     12 C10         4.8520    1.4050   -0.5232 C.3       1 <0>        -0.1030
     13 H1          4.8589    1.2870   -1.6068 H         1 <0>         0.1109
     14 C11         3.6397    2.2091   -0.0591 C.2       1 <0>         0.1574
     15 N1          4.0279    3.3516    0.3598 N.2       1 <0>        -0.2389
     16 N2          5.4165    3.4978    0.4039 N.pl3     1 <0>        -0.4700
     17 C12         6.0524    2.2259   -0.0485 C.3       1 <0>         0.0983
     18 H2          6.7466    2.4023   -0.8701 H         1 <0>         0.0967
     19 C13         6.7580    1.5265    1.1151 C.3       1 <0>         0.1255
     20 C14         7.8437    2.4231    1.6567 C.2       1 <0>        -0.2026
     21 C15         9.0696    2.3445    1.1341 C.2       1 <0>        -0.0946
     22 C16         9.3103    1.3774    0.0497 C.2       1 <0>        -0.2405
     23 C17         8.4246    0.3912   -0.1442 C.2       1 <0>         0.0549
     24 O3          7.3348    0.3027    0.6557 O.3       1 <0>        -0.3000
     25 C18         6.0983    4.6453    0.7950 C.ar      1 <0>         0.2833
     26 C19         7.3847    4.8857    0.3179 C.ar      1 <0>        -0.1679
     27 C20         8.0625    6.0198    0.7020 C.ar      1 <0>        -0.0200
     28 C21         7.4587    6.9326    1.5728 C.ar      1 <0>        -0.0736
     29 C22         6.1663    6.6888    2.0506 C.ar      1 <0>         0.0447
     30 C23         5.4914    5.5533    1.6575 C.ar      1 <0>        -0.1533
     31 Cl1         5.4119    7.8178    3.1322 Cl        1 <0>        -0.0491
     32 C24         8.1616    8.1137    1.9748 C.1       1 <0>         0.2591
     33 N3          8.7192    9.0506    2.2937 N.1       1 <0>        -0.4156
     34 H3         -0.9829    2.3630   -0.0996 H         1 <0>         0.1334
     35 H4          1.2136    3.4508   -0.0162 H         1 <0>         0.1237
     36 H5          0.9342   -1.4739   -0.3267 H         1 <0>         0.1324
     37 H6          3.3149   -1.5470    0.2974 H         1 <0>         0.0824
     38 H7          3.6143   -0.9560   -1.3432 H         1 <0>         0.0779
     39 H8          4.6764    0.2048    1.2562 H         1 <0>         0.0686
     40 H9          5.6055   -0.5581   -0.0585 H         1 <0>         0.0945
     41 H10         6.0356    1.3142    1.9032 H         1 <0>         0.1252
     42 H11         7.6324    3.1181    2.4559 H         1 <0>         0.1279
     43 H12         9.8666    2.9760    1.4979 H         1 <0>         0.1269
     44 H13        10.1849    1.4621   -0.5782 H         1 <0>         0.1333
     45 H14         8.5783   -0.3292   -0.9341 H         1 <0>         0.1673
     46 H15         7.8510    4.1806   -0.3543 H         1 <0>         0.1379
     47 H16         9.0600    6.2048    0.3316 H         1 <0>         0.1434
     48 H17         4.4922    5.3661    2.0220 H         1 <0>         0.1515
@<TRIPOS>BOND
     1    1    6 ar
     2    1    2 ar
     3    1   34 1
     4    2    3 ar
     5    2   35 1
     6    3   14 1
     7    3    4 ar
     8    4    5 ar
     9    4   10 1
    10    5    6 ar
    11    5   36 1
    12    6    7 1
    13    7    8 2
    14    7    9 1
    15   10   11 1
    16   10   37 1
    17   10   38 1
    18   11   12 1
    19   11   39 1
    20   11   40 1
    21   12   13 1
    22   12   17 1
    23   12   14 1
    24   14   15 2
    25   15   16 1
    26   16   17 1
    27   16   25 1
    28   17   18 1
    29   17   19 1
    30   19   24 1
    31   19   20 1
    32   19   41 1
    33   20   21 2
    34   20   42 1
    35   21   22 1
    36   21   43 1
    37   22   23 2
    38   22   44 1
    39   23   24 1
    40   23   45 1
    41   25   30 ar
    42   25   26 ar
    43   26   27 ar
    44   26   46 1
    45   27   28 ar
    46   27   47 1
    47   28   29 ar
    48   28   32 1
    49   29   30 ar
    50   29   31 1
    51   30   48 1
    52   32   33 3
@<TRIPOS>MOLECULE
CHEMBL1215411__1
   48    52     0     0     0
SMALL
USER_CHARGES

@<TRIPOS>ATOM
      1 C1          0.5649    0.7745   -2.0300 C.ar      1 <0>        -0.0933
      2 C2          1.6116    1.5592   -1.6325 C.ar      1 <0>        -0.0902
      3 C3          2.6835    0.9888   -0.9507 C.ar      1 <0>        -0.0513
      4 C4          2.7172   -0.3859   -0.6672 C.ar      1 <0>        -0.0651
      5 C5          1.6609   -1.1637   -1.0611 C.ar      1 <0>        -0.0902
      6 C6          0.5808   -0.5955   -1.7433 C.ar      1 <0>        -0.1044
      7 C7         -0.5472   -1.4436   -2.1627 C.2       1 <0>         0.5155
      8 O1         -1.4943   -0.9505   -2.7599 O.co2     1 <0>        -0.6829
      9 O2         -0.5373   -2.6415   -1.9142 O.co2     1 <0>        -0.6839
     10 C8          3.8787   -1.0309    0.0343 C.3       1 <0>        -0.0784
     11 C9          4.7580   -0.0411    0.7961 C.3       1 <0>        -0.1123
     12 C10         5.1393    1.1081   -0.1363 C.3       1 <0>        -0.1030
     13 H1          5.6451    0.7397   -1.0288 H         1 <0>         0.1079
     14 C11         3.8233    1.7984   -0.4877 C.2       1 <0>         0.1618
     15 N1          3.9392    3.0539   -0.2837 N.2       1 <0>        -0.2404
     16 N2          5.1481    3.4229    0.3111 N.pl3     1 <0>        -0.4718
     17 C12         5.9618    2.1963    0.5563 C.3       1 <0>         0.0926
     18 H2          6.9488    2.2801    0.1014 H         1 <0>         0.1047
     19 C13         6.0794    1.9119    2.0551 C.3       1 <0>         0.1262
     20 C14         6.8855    3.0047    2.7124 C.2       1 <0>        -0.2358
     21 C15         6.2544    4.0862    3.1752 C.2       1 <0>        -0.0635
     22 C16         4.7911    4.1627    3.0273 C.2       1 <0>        -0.2472
     23 C17         4.1095    3.0406    2.7605 C.2       1 <0>         0.0790
     24 O3          4.7745    1.8670    2.6350 O.3       1 <0>        -0.3004
     25 C18         5.5374    4.7228    0.6163 C.ar      1 <0>         0.2999
     26 C19         6.8906    5.0366    0.7202 C.ar      1 <0>        -0.1676
     27 C20         7.2799    6.3213    1.0215 C.ar      1 <0>        -0.0240
     28 C21         6.3154    7.3137    1.2238 C.ar      1 <0>        -0.0764
     29 C22         4.9567    6.9959    1.1190 C.ar      1 <0>         0.0414
     30 C23         4.5742    5.7081    0.8116 C.ar      1 <0>        -0.1475
     31 Cl1         3.7549    8.2233    1.3697 Cl        1 <0>        -0.0525
     32 C24         6.7174    8.6517    1.5380 C.1       1 <0>         0.2600
     33 N3          7.0362    9.7132    1.7873 N.1       1 <0>        -0.4194
     34 H3         -0.2708    1.2097   -2.5578 H         1 <0>         0.1327
     35 H4          1.6072    2.6177   -1.8468 H         1 <0>         0.1228
     36 H5          1.6624   -2.2216   -0.8437 H         1 <0>         0.1317
     37 H6          3.4947   -1.7697    0.7378 H         1 <0>         0.0813
     38 H7          4.4920   -1.5442   -0.7062 H         1 <0>         0.0752
     39 H8          4.2085    0.3508    1.6520 H         1 <0>         0.1006
     40 H9          5.6606   -0.5457    1.1408 H         1 <0>         0.0717
     41 H10         6.5767    0.9536    2.2050 H         1 <0>         0.1302
     42 H11         7.9575    2.9135    2.8069 H         1 <0>         0.1282
     43 H12         6.8043    4.8867    3.6476 H         1 <0>         0.1232
     44 H13         4.2766    5.1065    3.1322 H         1 <0>         0.1310
     45 H14         3.0361    3.0715    2.6460 H         1 <0>         0.1590
     46 H15         7.6353    4.2701    0.5642 H         1 <0>         0.1360
     47 H16         8.3294    6.5632    1.1020 H         1 <0>         0.1411
     48 H17         3.5260    5.4624    0.7260 H         1 <0>         0.1480
@<TRIPOS>BOND
     1    1    6 ar
     2    1    2 ar
     3    1   34 1
     4    2    3 ar
     5    2   35 1
     6    3   14 1
     7    3    4 ar
     8    4    5 ar
     9    4   10 1
    10    5    6 ar
    11    5   36 1
    12    6    7 1
    13    7    8 2
    14    7    9 1
    15   10   11 1
    16   10   37 1
    17   10   38 1
    18   11   12 1
    19   11   39 1
    20   11   40 1
    21   12   13 1
    22   12   17 1
    23   12   14 1
    24   14   15 2
    25   15   16 1
    26   16   17 1
    27   16   25 1
    28   17   18 1
    29   17   19 1
    30   19   24 1
    31   19   20 1
    32   19   41 1
    33   20   21 2
    34   20   42 1
    35   21   22 1
    36   21   43 1
    37   22   23 2
    38   22   44 1
    39   23   24 1
    40   23   45 1
    41   25   30 ar
    42   25   26 ar
    43   26   27 ar
    44   26   46 1
    45   27   28 ar
    46   27   47 1
    47   28   29 ar
    48   28   32 1
    49   29   30 ar
    50   29   31 1
    51   30   48 1
    52   32   33 3
@<TRIPOS>MOLECULE
CHEMBL386916
   53    55     0     0     0
SMALL
USER_CHARGES

@<TRIPOS>ATOM
      1 C1          0.9062   -0.2806    0.9043 C.3       1 <0>        -0.1550
      2 C2         -0.0748   -0.5901   -0.2282 C.3       1 <0>        -0.0123
      3 C3          0.2895   -1.9323   -0.8659 C.3       1 <0>        -0.1358
      4 C4         -1.4962   -0.6612    0.3334 C.3       1 <0>        -0.1532
      5 C5         -1.6476    0.3538    1.4682 C.3       1 <0>         0.0794
      6 C6         -3.0271    0.1978    2.1113 C.3       1 <0>         0.0615
      7 N1         -3.2078    1.2294    3.1356 N.pl3     1 <0>        -0.4969
      8 C7         -2.6809    1.0368    4.3710 C.2       1 <0>         0.1800
      9 C8         -2.8070    1.9416    5.3633 C.2       1 <0>        -0.3002
     10 C9         -3.5106    3.1498    5.1394 C.2       1 <0>         0.4248
     11 O1         -3.6356    3.9811    6.0234 O.2       1 <0>        -0.4878
     12 C10        -4.0856    3.3671    3.8018 C.ar      1 <0>        -0.2557
     13 C11        -3.9011    2.3709    2.8227 C.ar      1 <0>         0.2469
     14 C12        -4.4429    2.5849    1.5565 C.ar      1 <0>        -0.2451
     15 C13        -5.1265    3.7573    1.3186 C.ar      1 <0>         0.1581
     16 N2         -5.2767    4.6744    2.2596 N.ar      1 <0>        -0.5124
     17 C14        -4.7954    4.5195    3.4766 C.ar      1 <0>         0.1995
     18 C15        -1.5031    1.7702    0.9081 C.3       1 <0>         0.4637
     19 F1         -2.4259    1.9590   -0.1263 F         1 <0>        -0.1680
     20 F2         -1.7453    2.7005    1.9246 F         1 <0>        -0.1690
     21 F3         -0.2062    1.9464    0.4141 F         1 <0>        -0.1476
     22 O2         -0.6354    0.1245    2.4505 O.3       1 <0>        -0.5183
     23 C16         0.0003    0.4973   -1.2690 C.ar      1 <0>        -0.0658
     24 C17        -1.1416    0.8930   -1.9387 C.ar      1 <0>        -0.1385
     25 C18        -1.0731    1.8921   -2.8944 C.ar      1 <0>         0.0717
     26 C19         0.1396    2.4960   -3.1809 C.ar      1 <0>        -0.1216
     27 C20         1.2828    2.1024   -2.5129 C.ar      1 <0>        -0.1751
     28 C21         1.2145    1.1052   -1.5508 C.ar      1 <0>         0.1275
     29 O3          2.3378    0.7207   -0.8886 O.3       1 <0>        -0.2951
     30 C22         3.5533    1.3901   -1.2300 C.3       1 <0>         0.0153
     31 F4         -2.1904    2.2781   -3.5486 F         1 <0>        -0.1392
     32 H1          1.9277   -0.3947    0.5416 H         1 <0>         0.0702
     33 H2          0.7545    0.7430    1.2469 H         1 <0>         0.0920
     34 H3          0.7353   -0.9696    1.7315 H         1 <0>         0.0577
     35 H4          0.1507   -2.7305   -0.1367 H         1 <0>         0.0616
     36 H5         -0.3535   -2.1116   -1.7276 H         1 <0>         0.0559
     37 H6          1.3307   -1.9111   -1.1876 H         1 <0>         0.0652
     38 H7         -2.2110   -0.4320   -0.4569 H         1 <0>         0.0975
     39 H8         -1.6861   -1.6643    0.7154 H         1 <0>         0.1021
     40 H9         -3.7979    0.3047    1.3480 H         1 <0>         0.1192
     41 H10        -3.1046   -0.7877    2.5704 H         1 <0>         0.1232
     42 H11        -2.1398    0.1231    4.5677 H         1 <0>         0.1625
     43 H12        -2.3704    1.7439    6.3311 H         1 <0>         0.1545
     44 H13        -4.3289    1.8463    0.7769 H         1 <0>         0.1449
     45 H14        -5.5494    3.9317    0.3402 H         1 <0>         0.1637
     46 H15        -4.9400    5.2922    4.2172 H         1 <0>         0.1730
     47 H16        -0.6665   -0.7560    2.8492 H         1 <0>         0.3913
     48 H17        -2.0880    0.4224   -1.7168 H         1 <0>         0.1435
     49 H18         0.1918    3.2749   -3.9273 H         1 <0>         0.1368
     50 H19         2.2286    2.5733   -2.7368 H         1 <0>         0.1375
     51 H20         4.3700    0.9888   -0.6299 H         1 <0>         0.1013
     52 H21         3.7690    1.2349   -2.2871 H         1 <0>         0.0551
     53 H22         3.4482    2.4570   -1.0334 H         1 <0>         0.0556
@<TRIPOS>BOND
     1    1    2 1
     2    1   32 1
     3    1   33 1
     4    1   34 1
     5    2    3 1
     6    2    4 1
     7    2   23 1
     8    3   35 1
     9    3   36 1
    10    3   37 1
    11    4    5 1
    12    4   38 1
    13    4   39 1
    14    5    6 1
    15    5   18 1
    16    5   22 1
    17    6    7 1
    18    6   40 1
    19    6   41 1
    20    7   13 1
    21    7    8 1
    22    8    9 2
    23    8   42 1
    24    9   10 1
    25    9   43 1
    26   10   11 2
    27   10   12 1
    28   12   17 ar
    29   12   13 ar
    30   13   14 ar
    31   14   15 ar
    32   14   44 1
    33   15   16 ar
    34   15   45 1
    35   16   17 ar
    36   17   46 1
    37   18   19 1
    38   18   20 1
    39   18   21 1
    40   22   47 1
    41   23   28 ar
    42   23   24 ar
    43   24   25 ar
    44   24   48 1
    45   25   26 ar
    46   25   31 1
    47   26   27 ar
    48   26   49 1
    49   27   28 ar
    50   27   50 1
    51   28   29 1
    52   29   30 1
    53   30   51 1
    54   30   52 1
    55   30   53 1
@<TRIPOS>MOLECULE
CHEMBL386916__1
   53    55     0     0     0
SMALL
USER_CHARGES

@<TRIPOS>ATOM
      1 C1          0.1987    0.4981   -1.5632 C.3       1 <0>        -0.1376
      2 C2         -0.0995    0.6101   -0.0668 C.3       1 <0>        -0.0108
      3 C3         -0.1593    2.0860    0.3323 C.3       1 <0>        -0.1581
      4 C4         -1.4436   -0.0550    0.2366 C.3       1 <0>        -0.1561
      5 C5         -2.0834    0.6191    1.4519 C.3       1 <0>         0.0780
      6 C6         -3.4729    0.0253    1.6918 C.3       1 <0>         0.0613
      7 N1         -4.0856    0.6708    2.8555 N.pl3     1 <0>        -0.4960
      8 C7         -3.8847    0.1429    4.0891 C.2       1 <0>         0.1743
      9 C8         -4.4163    0.6823    5.2051 C.2       1 <0>        -0.2988
     10 C9         -5.2202    1.8448    5.1203 C.2       1 <0>         0.4253
     11 O1         -5.7099    2.3483    6.1176 O.2       1 <0>        -0.4862
     12 C10        -5.4435    2.4244    3.7856 C.ar      1 <0>        -0.2550
     13 C11        -4.8450    1.7986    2.6742 C.ar      1 <0>         0.2479
     14 C12        -5.0555    2.3553    1.4138 C.ar      1 <0>        -0.2335
     15 C13        -5.8307    3.4898    1.3123 C.ar      1 <0>         0.1558
     16 N2         -6.3736    4.0550    2.3777 N.ar      1 <0>        -0.5126
     17 C14        -6.2171    3.5652    3.5911 C.ar      1 <0>         0.2014
     18 C15        -1.2086    0.3842    2.6849 C.3       1 <0>         0.4597
     19 F1          0.0793    0.8743    2.4433 F         1 <0>        -0.1425
     20 F2         -1.7625    1.0501    3.7835 F         1 <0>        -0.1645
     21 F3         -1.1426   -0.9868    2.9555 F         1 <0>        -0.1706
     22 O2         -2.2004    2.0229    1.2114 O.3       1 <0>        -0.5140
     23 C16         0.9894   -0.0780    0.7154 C.ar      1 <0>        -0.0511
     24 C17         0.7091   -1.2316    1.4224 C.ar      1 <0>        -0.1609
     25 C18         1.7093   -1.8643    2.1405 C.ar      1 <0>         0.0751
     26 C19         2.9917   -1.3419    2.1519 C.ar      1 <0>        -0.1254
     27 C20         3.2746   -0.1888    1.4460 C.ar      1 <0>        -0.1699
     28 C21         2.2746    0.4431    0.7212 C.ar      1 <0>         0.1183
     29 O3          2.5530    1.5749    0.0215 O.3       1 <0>        -0.3021
     30 C22         3.8981    2.0549    0.0726 C.3       1 <0>         0.0207
     31 F4          1.4339   -2.9921    2.8314 F         1 <0>        -0.1390
     32 H1          1.1106    1.0488   -1.7942 H         1 <0>         0.0715
     33 H2          0.3301   -0.5506   -1.8300 H         1 <0>         0.0547
     34 H3         -0.6321    0.9163   -2.1316 H         1 <0>         0.0605
     35 H4         -0.9785    2.5726   -0.1970 H         1 <0>         0.0587
     36 H5         -0.3230    2.1654    1.4070 H         1 <0>         0.0929
     37 H6          0.7811    2.5713    0.0711 H         1 <0>         0.0637
     38 H7         -2.1028    0.0483   -0.6252 H         1 <0>         0.1030
     39 H8         -1.2860   -1.1125    0.4488 H         1 <0>         0.0994
     40 H9         -4.0962    0.1927    0.8134 H         1 <0>         0.1242
     41 H10        -3.3837   -1.0454    1.8753 H         1 <0>         0.1199
     42 H11        -3.2755   -0.7442    4.1809 H         1 <0>         0.1587
     43 H12        -4.2287    0.2261    6.1659 H         1 <0>         0.1550
     44 H13        -4.6190    1.9063    0.5339 H         1 <0>         0.1375
     45 H14        -5.9988    3.9282    0.3397 H         1 <0>         0.1640
     46 H15        -6.6776    4.0563    4.4356 H         1 <0>         0.1730
     47 H16        -2.7428    2.2463    0.4426 H         1 <0>         0.3884
     48 H17        -0.2908   -1.6397    1.4149 H         1 <0>         0.1535
     49 H18         3.7709   -1.8360    2.7131 H         1 <0>         0.1369
     50 H19         4.2748    0.2187    1.4553 H         1 <0>         0.1378
     51 H20         3.9834    2.9613   -0.5268 H         1 <0>         0.1019
     52 H21         4.1659    2.2759    1.1058 H         1 <0>         0.0560
     53 H22         4.5708    1.2935   -0.3223 H         1 <0>         0.0558
@<TRIPOS>BOND
     1    1    2 1
     2    1   32 1
     3    1   33 1
     4    1   34 1
     5    2    3 1
     6    2    4 1
     7    2   23 1
     8    3   35 1
     9    3   36 1
    10    3   37 1
    11    4    5 1
    12    4   38 1
    13    4   39 1
    14    5    6 1
    15    5   18 1
    16    5   22 1
    17    6    7 1
    18    6   40 1
    19    6   41 1
    20    7   13 1
    21    7    8 1
    22    8    9 2
    23    8   42 1
    24    9   10 1
    25    9   43 1
    26   10   11 2
    27   10   12 1
    28   12   17 ar
    29   12   13 ar
    30   13   14 ar
    31   14   15 ar
    32   14   44 1
    33   15   16 ar
    34   15   45 1
    35   16   17 ar
    36   17   46 1
    37   18   19 1
    38   18   20 1
    39   18   21 1
    40   22   47 1
    41   23   28 ar
    42   23   24 ar
    43   24   25 ar
    44   24   48 1
    45   25   26 ar
    46   25   31 1
    47   26   27 ar
    48   26   49 1
    49   27   28 ar
    50   27   50 1
    51   28   29 1
    52   29   30 1
    53   30   51 1
    54   30   52 1
    55   30   53 1
@<TRIPOS>MOLECULE
CHEMBL386465
   54    56     0     0     0
SMALL
USER_CHARGES

@<TRIPOS>ATOM
      1 C1          0.8981   -0.2789    0.9044 C.3       1 <0>        -0.1548
      2 C2         -0.0830   -0.5805   -0.2302 C.3       1 <0>        -0.0124
      3 C3          0.2789   -1.9200   -0.8749 C.3       1 <0>        -0.1358
      4 C4         -1.5048   -0.6520    0.3304 C.3       1 <0>        -0.1533
      5 C5         -1.6549    0.3576    1.4702 C.3       1 <0>         0.0790
      6 C6         -3.0349    0.2007    2.1121 C.3       1 <0>         0.0621
      7 N1         -3.2144    1.2277    3.1413 N.pl3     1 <0>        -0.4991
      8 C7         -2.6883    1.0272    4.3737 C.2       1 <0>         0.1843
      9 C8         -2.8126    1.9275    5.3708 C.2       1 <0>        -0.3120
     10 C9         -3.5139    3.1364    5.1518 C.2       1 <0>         0.4175
     11 O1         -3.6375    3.9633    6.0403 O.2       1 <0>        -0.4972
     12 C10        -4.0897    3.3637    3.8147 C.ar      1 <0>        -0.1970
     13 C11        -3.9087    2.3755    2.8308 C.ar      1 <0>         0.2073
     14 C12        -4.4409    2.5735    1.5603 C.ar      1 <0>        -0.1911
     15 C13        -5.1310    3.7335    1.2824 C.ar      1 <0>        -0.0497
     16 C14        -5.3013    4.7073    2.2563 C.ar      1 <0>        -0.1609
     17 C15        -4.7963    4.5277    3.5143 C.ar      1 <0>        -0.0278
     18 C16        -1.5080    1.7766    0.9172 C.3       1 <0>         0.4638
     19 F1         -2.4287    1.9713   -0.1179 F         1 <0>        -0.1687
     20 F2         -1.7510    2.7023    1.9377 F         1 <0>        -0.1656
     21 F3         -0.2100    1.9537    0.4263 F         1 <0>        -0.1496
     22 O2         -0.6435    0.1218    2.4517 O.3       1 <0>        -0.5186
     23 C17        -0.0055    0.5122   -1.2651 C.ar      1 <0>        -0.0649
     24 C18        -1.1466    0.9142   -1.9327 C.ar      1 <0>        -0.1378
     25 C19        -1.0758    1.9183   -2.8830 C.ar      1 <0>         0.0713
     26 C20         0.1383    2.5209   -3.1664 C.ar      1 <0>        -0.1219
     27 C21         1.2806    2.1210   -2.5005 C.ar      1 <0>        -0.1754
     28 C22         1.2101    1.1188   -1.5438 C.ar      1 <0>         0.1277
     29 O3          2.3325    0.7282   -0.8837 O.3       1 <0>        -0.2949
     30 C23         3.5496    1.3965   -1.2216 C.3       1 <0>         0.0153
     31 F4         -2.1923    2.3103   -3.5350 F         1 <0>        -0.1397
     32 H1          1.9195   -0.3927    0.5414 H         1 <0>         0.0696
     33 H2          0.7480    0.7431    1.2524 H         1 <0>         0.0926
     34 H3          0.7257   -0.9721    1.7277 H         1 <0>         0.0576
     35 H4          0.1384   -2.7218   -0.1500 H         1 <0>         0.0615
     36 H5         -0.3640   -2.0935   -1.7378 H         1 <0>         0.0556
     37 H6          1.3203   -1.8990   -1.1960 H         1 <0>         0.0649
     38 H7         -2.2189   -0.4176   -0.4590 H         1 <0>         0.0968
     39 H8         -1.6966   -1.6566    0.7073 H         1 <0>         0.1013
     40 H9         -3.8053    0.3124    1.3491 H         1 <0>         0.1181
     41 H10        -3.1140   -0.7869    2.5665 H         1 <0>         0.1201
     42 H11        -2.1490    0.1113    4.5654 H         1 <0>         0.1586
     43 H12        -2.3764    1.7248    6.3378 H         1 <0>         0.1502
     44 H13        -4.3134    1.8217    0.7955 H         1 <0>         0.1337
     45 H14        -5.5433    3.8865    0.2960 H         1 <0>         0.1317
     46 H15        -5.8446    5.6106    2.0212 H         1 <0>         0.1304
     47 H16        -4.9331    5.2892    4.2678 H         1 <0>         0.1379
     48 H17        -0.6761   -0.7606    2.8460 H         1 <0>         0.3905
     49 H18        -2.0940    0.4446   -1.7131 H         1 <0>         0.1435
     50 H19         0.1922    3.3036   -3.9085 H         1 <0>         0.1364
     51 H20         2.2274    2.5909   -2.7220 H         1 <0>         0.1373
     52 H21         3.7648    1.2466   -2.2796 H         1 <0>         0.0549
     53 H22         3.4469    2.4627   -1.0193 H         1 <0>         0.0556
     54 H23         4.3653    0.9902   -0.6237 H         1 <0>         0.1012
@<TRIPOS>BOND
     1    1    2 1
     2    1   32 1
     3    1   33 1
     4    1   34 1
     5    2    3 1
     6    2    4 1
     7    2   23 1
     8    3   35 1
     9    3   36 1
    10    3   37 1
    11    4    5 1
    12    4   38 1
    13    4   39 1
    14    5    6 1
    15    5   18 1
    16    5   22 1
    17    6    7 1
    18    6   40 1
    19    6   41 1
    20    7   13 1
    21    7    8 1
    22    8    9 2
    23    8   42 1
    24    9   10 1
    25    9   43 1
    26   10   11 2
    27   10   12 1
    28   12   17 ar
    29   12   13 ar
    30   13   14 ar
    31   14   15 ar
    32   14   44 1
    33   15   16 ar
    34   15   45 1
    35   16   17 ar
    36   16   46 1
    37   17   47 1
    38   18   19 1
    39   18   20 1
    40   18   21 1
    41   22   48 1
    42   23   28 ar
    43   23   24 ar
    44   24   25 ar
    45   24   49 1
    46   25   26 ar
    47   25   31 1
    48   26   27 ar
    49   26   50 1
    50   27   28 ar
    51   27   51 1
    52   28   29 1
    53   29   30 1
    54   30   52 1
    55   30   53 1
    56   30   54 1
@<TRIPOS>MOLECULE
CHEMBL386465__1
   54    56     0     0     0
SMALL
USER_CHARGES

@<TRIPOS>ATOM
      1 C1          0.1988    0.4983   -1.5632 C.3       1 <0>        -0.1374
      2 C2         -0.0995    0.6102   -0.0668 C.3       1 <0>        -0.0109
      3 C3         -0.1592    2.0860    0.3324 C.3       1 <0>        -0.1580
      4 C4         -1.4435   -0.0549    0.2365 C.3       1 <0>        -0.1564
      5 C5         -2.0834    0.6191    1.4519 C.3       1 <0>         0.0784
      6 C6         -3.4729    0.0253    1.6917 C.3       1 <0>         0.0621
      7 N1         -4.0857    0.6707    2.8554 N.pl3     1 <0>        -0.4987
      8 C7         -3.8840    0.1422    4.0866 C.2       1 <0>         0.1790
      9 C8         -4.4152    0.6814    5.2034 C.2       1 <0>        -0.3105
     10 C9         -5.2183    1.8428    5.1178 C.2       1 <0>         0.4180
     11 O1         -5.7078    2.3458    6.1157 O.2       1 <0>        -0.4957
     12 C10        -5.4435    2.4251    3.7831 C.ar      1 <0>        -0.1963
     13 C11        -4.8477    1.8027    2.6717 C.ar      1 <0>         0.2085
     14 C12        -5.0445    2.3401    1.4032 C.ar      1 <0>        -0.1789
     15 C13        -5.8132    3.4740    1.2539 C.ar      1 <0>        -0.0529
     16 C14        -6.3938    4.0866    2.3555 C.ar      1 <0>        -0.1603
     17 C15        -6.2224    3.5685    3.6093 C.ar      1 <0>        -0.0261
     18 C16        -1.2086    0.3841    2.6849 C.3       1 <0>         0.4597
     19 F1          0.0792    0.8742    2.4432 F         1 <0>        -0.1437
     20 F2         -1.7625    1.0500    3.7835 F         1 <0>        -0.1634
     21 F3         -1.1426   -0.9869    2.9554 F         1 <0>        -0.1714
     22 O2         -2.2004    2.0229    1.2114 O.3       1 <0>        -0.5134
     23 C17         0.9894   -0.0780    0.7154 C.ar      1 <0>        -0.0503
     24 C18         0.7091   -1.2316    1.4223 C.ar      1 <0>        -0.1606
     25 C19         1.7092   -1.8643    2.1405 C.ar      1 <0>         0.0751
     26 C20         2.9916   -1.3420    2.1518 C.ar      1 <0>        -0.1258
     27 C21         3.2746   -0.1889    1.4460 C.ar      1 <0>        -0.1701
     28 C22         2.2746    0.4431    0.7213 C.ar      1 <0>         0.1180
     29 O3          2.5531    1.5749    0.0216 O.3       1 <0>        -0.3021
     30 C23         3.8981    2.0548    0.0728 C.3       1 <0>         0.0208
     31 F4          1.4338   -2.9922    2.8312 F         1 <0>        -0.1391
     32 H1          1.1107    1.0490   -1.7941 H         1 <0>         0.0712
     33 H2          0.3302   -0.5503   -1.8301 H         1 <0>         0.0544
     34 H3         -0.6320    0.9165   -2.1316 H         1 <0>         0.0602
     35 H4         -0.9784    2.5727   -0.1969 H         1 <0>         0.0585
     36 H5         -0.3230    2.1654    1.4071 H         1 <0>         0.0936
     37 H6          0.7812    2.5714    0.0713 H         1 <0>         0.0630
     38 H7         -2.1028    0.0485   -0.6253 H         1 <0>         0.1022
     39 H8         -1.2859   -1.1124    0.4486 H         1 <0>         0.0988
     40 H9         -4.0962    0.1927    0.8132 H         1 <0>         0.1227
     41 H10        -3.3837   -1.0455    1.8751 H         1 <0>         0.1169
     42 H11        -3.2749   -0.7451    4.1774 H         1 <0>         0.1548
     43 H12        -4.2274    0.2254    6.1642 H         1 <0>         0.1506
     44 H13        -4.5966    1.8708    0.5398 H         1 <0>         0.1259
     45 H14        -5.9651    3.8906    0.2691 H         1 <0>         0.1321
     46 H15        -6.9930    4.9749    2.2204 H         1 <0>         0.1302
     47 H16        -6.6777    4.0498    4.4622 H         1 <0>         0.1379
     48 H17        -2.7428    2.2464    0.4426 H         1 <0>         0.3879
     49 H18        -0.2908   -1.6397    1.4148 H         1 <0>         0.1538
     50 H19         3.7708   -1.8362    2.7131 H         1 <0>         0.1367
     51 H20         4.2748    0.2185    1.4554 H         1 <0>         0.1376
     52 H21         4.1660    2.2758    1.1060 H         1 <0>         0.0559
     53 H22         4.5708    1.2935   -0.3221 H         1 <0>         0.0556
     54 H23         3.9835    2.9613   -0.5266 H         1 <0>         0.1017
@<TRIPOS>BOND
     1    1    2 1
     2    1   32 1
     3    1   33 1
     4    1   34 1
     5    2    3 1
     6    2    4 1
     7    2   23 1
     8    3   35 1
     9    3   36 1
    10    3   37 1
    11    4    5 1
    12    4   38 1
    13    4   39 1
    14    5    6 1
    15    5   18 1
    16    5   22 1
    17    6    7 1
    18    6   40 1
    19    6   41 1
    20    7   13 1
    21    7    8 1
    22    8    9 2
    23    8   42 1
    24    9   10 1
    25    9   43 1
    26   10   11 2
    27   10   12 1
    28   12   17 ar
    29   12   13 ar
    30   13   14 ar
    31   14   15 ar
    32   14   44 1
    33   15   16 ar
    34   15   45 1
    35   16   17 ar
    36   16   46 1
    37   17   47 1
    38   18   19 1
    39   18   20 1
    40   18   21 1
    41   22   48 1
    42   23   28 ar
    43   23   24 ar
    44   24   25 ar
    45   24   49 1
    46   25   26 ar
    47   25   31 1
    48   26   27 ar
    49   26   50 1
    50   27   28 ar
    51   27   51 1
    52   28   29 1
    53   29   30 1
    54   30   52 1
    55   30   53 1
    56   30   54 1
@<TRIPOS>MOLECULE
CHEMBL257152
   47    50     0     0     0
SMALL
USER_CHARGES

@<TRIPOS>ATOM
      1 C1         -0.3196    1.3100   -0.2802 C.3       1 <0>        -0.1082
      2 C2         -0.2766   -0.1932   -0.1824 C.ar      1 <0>        -0.1518
      3 C3         -0.3754   -0.9586   -1.3242 C.ar      1 <0>        -0.0511
      4 C4         -0.3358   -2.3491   -1.2315 C.ar      1 <0>        -0.0927
      5 C5         -0.1983   -2.9584    0.0150 C.ar      1 <0>         0.0110
      6 C6         -0.1008   -2.1871    1.1594 C.ar      1 <0>        -0.1359
      7 C7         -0.1317   -0.8034    1.0600 C.ar      1 <0>         0.2379
      8 N1         -0.0197   -0.0009    2.2007 N.pl3     1 <0>        -0.7346
      9 C8         -0.1657   -0.6220    3.5240 C.3       1 <0>         0.1709
     10 C9          0.6485   -1.9224    3.5241 C.3       1 <0>        -0.1196
     11 C10         0.0410   -2.8775    2.4905 C.3       1 <0>        -0.0407
     12 C11         0.9646   -4.0875    2.3359 C.3       1 <0>        -0.1588
     13 C12        -1.6398   -0.9336    3.7903 C.3       1 <0>        -0.1616
     14 C13         0.3679    0.3236    4.6019 C.3       1 <0>        -0.1541
     15 Cl1        -0.1500   -4.6898    0.1314 Cl        1 <0>        -0.0554
     16 C14        -0.4400   -3.1782   -2.4561 C.ar      1 <0>        -0.0595
     17 C15         0.5597   -3.1283   -3.4197 C.ar      1 <0>        -0.0577
     18 C16         0.4710   -3.9000   -4.5669 C.ar      1 <0>        -0.1814
     19 C17        -0.6119   -4.7302   -4.7702 C.ar      1 <0>         0.1476
     20 C18        -1.6293   -4.7953   -3.8124 C.ar      1 <0>        -0.1468
     21 C19        -1.5449   -4.0205   -2.6440 C.ar      1 <0>         0.1476
     22 N2         -2.6662   -4.2901   -1.8946 N.pl3     1 <0>        -0.5840
     23 H1         -2.8714   -3.8899   -1.0352 H         1 <0>         0.4171
     24 C20        -3.4496   -5.2067   -2.5421 C.2       1 <0>         0.0532
     25 C21        -2.8832   -5.5467   -3.7106 C.2       1 <0>        -0.1926
     26 F1         -0.6898   -5.4786   -5.8923 F         1 <0>        -0.1366
     27 H2          0.6918    1.6945   -0.4121 H         1 <0>         0.0689
     28 H3         -0.9331    1.6012   -1.1327 H         1 <0>         0.0702
     29 H4         -0.7485    1.7214    0.6335 H         1 <0>         0.0620
     30 H5         -0.4835   -0.4828   -2.2876 H         1 <0>         0.1327
     31 H6          0.1520    0.9503    2.1191 H         1 <0>         0.4030
     32 H7          1.6850   -1.7043    3.2667 H         1 <0>         0.0730
     33 H8          0.6043   -2.3809    4.5120 H         1 <0>         0.0790
     34 H9         -0.9393   -3.2146    2.8272 H         1 <0>         0.0827
     35 H10         1.7094   -3.8803    1.5675 H         1 <0>         0.0593
     36 H11         1.4655   -4.2856    3.2835 H         1 <0>         0.0511
     37 H12         0.3767   -4.9586    2.0467 H         1 <0>         0.0732
     38 H13        -2.0098   -1.6189    3.0277 H         1 <0>         0.0613
     39 H14        -1.7421   -1.3940    4.7729 H         1 <0>         0.0664
     40 H15        -2.2177   -0.0099    3.7599 H         1 <0>         0.0586
     41 H16        -0.1949    1.2568    4.5776 H         1 <0>         0.0624
     42 H17         0.2570   -0.1422    5.5811 H         1 <0>         0.0745
     43 H18         1.4218    0.5299    4.4149 H         1 <0>         0.0635
     44 H19         1.4128   -2.4824   -3.2734 H         1 <0>         0.1356
     45 H20         1.2553   -3.8509   -5.3078 H         1 <0>         0.1372
     46 H21        -4.3880   -5.5925   -2.1720 H         1 <0>         0.1738
     47 H22        -3.2722   -6.2488   -4.4332 H         1 <0>         0.1495
@<TRIPOS>BOND
     1    1    2 1
     2    1   27 1
     3    1   28 1
     4    1   29 1
     5    2    7 ar
     6    2    3 ar
     7    3    4 ar
     8    3   30 1
     9    4    5 ar
    10    4   16 1
    11    5    6 ar
    12    5   15 1
    13    6   11 1
    14    6    7 ar
    15    7    8 1
    16    8    9 1
    17    8   31 1
    18    9   10 1
    19    9   13 1
    20    9   14 1
    21   10   11 1
    22   10   32 1
    23   10   33 1
    24   11   12 1
    25   11   34 1
    26   12   35 1
    27   12   36 1
    28   12   37 1
    29   13   38 1
    30   13   39 1
    31   13   40 1
    32   14   41 1
    33   14   42 1
    34   14   43 1
    35   16   21 ar
    36   16   17 ar
    37   17   18 ar
    38   17   44 1
    39   18   19 ar
    40   18   45 1
    41   19   20 ar
    42   19   26 1
    43   20   25 1
    44   20   21 ar
    45   21   22 1
    46   22   23 1
    47   22   24 1
    48   24   25 2
    49   24   46 1
    50   25   47 1
@<TRIPOS>MOLECULE
CHEMBL257152__1
   47    50     0     0     0
SMALL
USER_CHARGES

@<TRIPOS>ATOM
      1 C1         -0.1479    1.5788    0.1577 C.3       1 <0>        -0.1049
      2 C2         -0.1210    0.0731    0.1003 C.ar      1 <0>        -0.1517
      3 C3         -0.1674   -0.5684   -1.1184 C.ar      1 <0>        -0.0513
      4 C4         -0.1421   -1.9613   -1.1694 C.ar      1 <0>        -0.0924
      5 C5         -0.0682   -2.6982    0.0119 C.ar      1 <0>         0.0111
      6 C6         -0.0214   -2.0511    1.2338 C.ar      1 <0>        -0.1353
      7 C7         -0.0437   -0.6644    1.2781 C.ar      1 <0>         0.2379
      8 N1         -0.0006    0.0137    2.5012 N.pl3     1 <0>        -0.7354
      9 C8          0.3771   -0.7275    3.7120 C.3       1 <0>         0.1722
     10 C9         -0.3797   -2.0621    3.7001 C.3       1 <0>        -0.1200
     11 C10         0.0628   -2.8772    2.4904 C.3       1 <0>        -0.0415
     12 C11        -0.8288   -4.1119    2.3437 C.3       1 <0>        -0.1561
     13 C12         1.8850   -0.9870    3.7116 C.3       1 <0>        -0.1621
     14 C13        -0.0108    0.0770    4.9542 C.3       1 <0>        -0.1538
     15 Cl1        -0.0356   -4.4328   -0.0506 Cl        1 <0>        -0.0555
     16 C14        -0.1941   -2.6577   -2.4771 C.ar      1 <0>        -0.0598
     17 C15         0.8505   -2.5202   -3.3829 C.ar      1 <0>        -0.0577
     18 C16         0.8107   -3.1676   -4.6071 C.ar      1 <0>        -0.1815
     19 C17        -0.2673   -3.9592   -4.9458 C.ar      1 <0>         0.1476
     20 C18        -1.3294   -4.1110   -4.0481 C.ar      1 <0>        -0.1468
     21 C19        -1.2949   -3.4626   -2.8028 C.ar      1 <0>         0.1478
     22 N2         -2.4523   -3.7949   -2.1384 N.pl3     1 <0>        -0.5839
     23 H1         -2.6952   -3.4836   -1.2524 H         1 <0>         0.4170
     24 C20        -3.2107   -4.6299   -2.9135 C.2       1 <0>         0.0532
     25 C21        -2.5920   -4.8538   -4.0834 C.2       1 <0>        -0.1925
     26 F1         -0.2973   -4.5862   -6.1421 F         1 <0>        -0.1365
     27 H2          0.8716    1.9622    0.1170 H         1 <0>         0.0703
     28 H3         -0.7153    1.9646   -0.6892 H         1 <0>         0.0697
     29 H4         -0.6195    1.8986    1.0869 H         1 <0>         0.0589
     30 H5         -0.2235    0.0061   -2.0312 H         1 <0>         0.1328
     31 H6         -0.2163    0.9582    2.5489 H         1 <0>         0.4022
     32 H7         -0.1619   -2.6137    4.6146 H         1 <0>         0.0795
     33 H8         -1.4511   -1.8738    3.6314 H         1 <0>         0.0704
     34 H9          1.0941   -3.1951    2.6435 H         1 <0>         0.0822
     35 H10        -0.2596   -4.9183    1.8814 H         1 <0>         0.0749
     36 H11        -1.1749   -4.4291    3.3274 H         1 <0>         0.0514
     37 H12        -1.6872   -3.8678    1.7178 H         1 <0>         0.0552
     38 H13         2.4172   -0.0360    3.6904 H         1 <0>         0.0591
     39 H14         2.1593   -1.5369    4.6118 H         1 <0>         0.0664
     40 H15         2.1526   -1.5728    2.8322 H         1 <0>         0.0623
     41 H16        -1.0877    0.2458    4.9561 H         1 <0>         0.0629
     42 H17         0.2716   -0.4775    5.8491 H         1 <0>         0.0747
     43 H18         0.5072    1.0360    4.9424 H         1 <0>         0.0628
     44 H19         1.7003   -1.9032   -3.1307 H         1 <0>         0.1356
     45 H20         1.6295   -3.0514   -5.3017 H         1 <0>         0.1372
     46 H21        -4.1683   -5.0408   -2.6295 H         1 <0>         0.1737
     47 H22        -2.9513   -5.4724   -4.8925 H         1 <0>         0.1495
@<TRIPOS>BOND
     1    1    2 1
     2    1   27 1
     3    1   28 1
     4    1   29 1
     5    2    7 ar
     6    2    3 ar
     7    3    4 ar
     8    3   30 1
     9    4    5 ar
    10    4   16 1
    11    5    6 ar
    12    5   15 1
    13    6   11 1
    14    6    7 ar
    15    7    8 1
    16    8    9 1
    17    8   31 1
    18    9   10 1
    19    9   13 1
    20    9   14 1
    21   10   11 1
    22   10   32 1
    23   10   33 1
    24   11   12 1
    25   11   34 1
    26   12   35 1
    27   12   36 1
    28   12   37 1
    29   13   38 1
    30   13   39 1
    31   13   40 1
    32   14   41 1
    33   14   42 1
    34   14   43 1
    35   16   21 ar
    36   16   17 ar
    37   17   18 ar
    38   17   44 1
    39   18   19 ar
    40   18   45 1
    41   19   20 ar
    42   19   26 1
    43   20   25 1
    44   20   21 ar
    45   21   22 1
    46   22   23 1
    47   22   24 1
    48   24   25 2
    49   24   46 1
    50   25   47 1
@<TRIPOS>MOLECULE
CHEMBL235206
   46    49     0     0     0
SMALL
USER_CHARGES

@<TRIPOS>ATOM
      1 C1          0.2238    1.5064    0.1027 C.3       1 <0>        -0.1378
      2 C2          0.0021   -0.0041    0.0020 C.3       1 <0>         0.0993
      3 C3          0.5736   -0.6781    1.2227 C.ar      1 <0>        -0.0953
      4 C4          1.2837    0.0602    2.1509 C.ar      1 <0>        -0.0670
      5 C5          1.8079   -0.5565    3.2709 C.ar      1 <0>        -0.1666
      6 C6          1.6227   -1.9152    3.4645 C.ar      1 <0>         0.1186
      7 C7          0.9119   -2.6554    2.5359 C.ar      1 <0>        -0.2008
      8 C8          0.3823   -2.0355    1.4170 C.ar      1 <0>         0.1559
      9 F1         -0.3165   -2.7558    0.5126 F         1 <0>        -0.1177
     10 F2          2.1361   -2.5180    4.5591 F         1 <0>        -0.1381
     11 C9         -1.4749   -0.2903   -0.0847 C.2       1 <0>        -0.1893
     12 C10        -2.1088   -0.9193   -1.0874 C.2       1 <0>         0.0549
     13 N1         -3.4471   -0.9961   -0.8167 N.pl3     1 <0>        -0.5708
     14 H1         -4.1098   -1.4072   -1.3935 H         1 <0>         0.4128
     15 C11        -3.7133   -0.4028    0.3987 C.ar      1 <0>         0.0576
     16 C12        -2.4899    0.0592    0.9119 C.ar      1 <0>        -0.0530
     17 C13        -2.4520    0.7068    2.1501 C.ar      1 <0>        -0.1920
     18 C14        -3.6052    0.8861    2.8606 C.ar      1 <0>        -0.0711
     19 C15        -4.8182    0.4307    2.3645 C.ar      1 <0>        -0.2797
     20 C16        -4.8824   -0.2068    1.1375 C.ar      1 <0>         0.2934
     21 N2         -6.1091   -0.6645    0.6466 N.2       1 <0>        -1.1113
     22 S1         -7.4925   -0.4298    1.5261 S.o2      1 <0>         2.5316
     23 O1         -7.2986   -1.1836    2.7150 O.2       1 <0>        -1.0288
     24 O2         -7.6523    0.9811    1.5809 O.2       1 <0>        -1.0293
     25 C17        -8.8123   -1.1697    0.5254 C.3       1 <0>        -0.6397
     26 C18         0.6997   -0.5396   -1.2499 C.3       1 <0>        -0.1338
     27 C19         1.7477   -1.6379   -1.0594 C.3       1 <0>        -0.1842
     28 C20         2.1854   -0.2177   -1.4231 C.3       1 <0>        -0.1775
     29 H2          1.2921    1.7135    0.1654 H         1 <0>         0.0534
     30 H3         -0.1896    1.9940   -0.7802 H         1 <0>         0.0623
     31 H4         -0.2733    1.8880    0.9946 H         1 <0>         0.0666
     32 H5          1.4292    1.1197    2.0004 H         1 <0>         0.1450
     33 H6          2.3625    0.0214    3.9954 H         1 <0>         0.1374
     34 H7          0.7670   -3.7151    2.6860 H         1 <0>         0.1427
     35 H8         -1.6325   -1.3066   -1.9759 H         1 <0>         0.1532
     36 H9         -1.5124    1.0645    2.5447 H         1 <0>         0.0965
     37 H10        -3.5721    1.3865    3.8171 H         1 <0>         0.0972
     38 H11        -5.7211    0.5800    2.9380 H         1 <0>         0.1006
     39 H12        -8.6044   -2.2292    0.3760 H         1 <0>         0.1133
     40 H13        -9.7661   -1.0557    1.0405 H         1 <0>         0.1003
     41 H14        -8.8594   -0.6688   -0.4415 H         1 <0>         0.1133
     42 H15         0.0854   -0.5802   -2.1494 H         1 <0>         0.1102
     43 H16         1.9402   -1.9789   -0.0422 H         1 <0>         0.0939
     44 H17         1.8230   -2.4015   -1.8336 H         1 <0>         0.0902
     45 H18         2.5486   -0.0469   -2.4365 H         1 <0>         0.0907
     46 H19         2.6658    0.3757   -0.6451 H         1 <0>         0.0932
@<TRIPOS>BOND
     1    1    2 1
     2    1   29 1
     3    1   30 1
     4    1   31 1
     5    2    3 1
     6    2   11 1
     7    2   26 1
     8    3    8 ar
     9    3    4 ar
    10    4    5 ar
    11    4   32 1
    12    5    6 ar
    13    5   33 1
    14    6    7 ar
    15    6   10 1
    16    7    8 ar
    17    7   34 1
    18    8    9 1
    19   11   16 1
    20   11   12 2
    21   12   13 1
    22   12   35 1
    23   13   14 1
    24   13   15 1
    25   15   20 ar
    26   15   16 ar
    27   16   17 ar
    28   17   18 ar
    29   17   36 1
    30   18   19 ar
    31   18   37 1
    32   19   20 ar
    33   19   38 1
    34   20   21 1
    35   21   22 1
    36   22   23 2
    37   22   24 2
    38   22   25 1
    39   25   39 1
    40   25   40 1
    41   25   41 1
    42   26   28 1
    43   26   27 1
    44   26   42 1
    45   27   28 1
    46   27   43 1
    47   27   44 1
    48   28   45 1
    49   28   46 1
@<TRIPOS>MOLECULE
CHEMBL235206__1
   47    50     0     0     0
SMALL
USER_CHARGES

@<TRIPOS>ATOM
      1 C1          0.0704    2.0525   -0.6888 C.3       1 <0>        -0.1416
      2 C2         -0.0423    0.5281   -0.7556 C.3       1 <0>         0.0941
      3 C3          0.6101   -0.0776    0.4604 C.ar      1 <0>        -0.1105
      4 C4          1.2742    0.7314    1.3633 C.ar      1 <0>        -0.0654
      5 C5          1.8725    0.1774    2.4790 C.ar      1 <0>        -0.1631
      6 C6          1.8075   -1.1893    2.6936 C.ar      1 <0>         0.1281
      7 C7          1.1428   -2.0002    1.7903 C.ar      1 <0>        -0.1988
      8 C8          0.5390   -1.4434    0.6758 C.ar      1 <0>         0.1509
      9 F1         -0.1151   -2.2331   -0.2038 F         1 <0>        -0.1218
     10 F2          2.3932   -1.7307    3.7840 F         1 <0>        -0.1317
     11 C9         -1.4960    0.1331   -0.7950 C.2       1 <0>        -0.1585
     12 C10        -2.0938   -0.6195   -1.7326 C.2       1 <0>         0.0747
     13 N1         -3.4204   -0.7671   -1.4353 N.pl3     1 <0>        -0.5906
     14 H1         -4.0581   -1.2698   -1.9658 H         1 <0>         0.4160
     15 C11        -3.7158   -0.0952   -0.2684 C.ar      1 <0>         0.0813
     16 C12        -2.5231    0.4922    0.1856 C.ar      1 <0>        -0.0709
     17 C13        -2.5187    1.2411    1.3658 C.ar      1 <0>        -0.0825
     18 C14        -3.6745    1.3977    2.0775 C.ar      1 <0>        -0.1162
     19 C15        -4.8571    0.8190    1.6398 C.ar      1 <0>        -0.1548
     20 C16        -4.8883    0.0791    0.4703 C.ar      1 <0>         0.1391
     21 N2         -6.0843   -0.5022    0.0382 N.pl3     1 <0>        -1.0564
     22 S1         -7.5217    0.2840    0.2793 S.o2      1 <0>         2.6094
     23 O1         -8.4978   -0.5500   -0.3297 O.2       1 <0>        -0.9521
     24 O2         -7.5619    0.5459    1.6754 O.2       1 <0>        -0.9445
     25 C17        -7.3637    1.8377   -0.6436 C.3       1 <0>        -0.6675
     26 C18         0.6588    0.0197   -2.0169 C.3       1 <0>        -0.1447
     27 C19         1.7976   -0.9859   -1.8356 C.3       1 <0>        -0.1816
     28 C20         2.1077    0.4556   -2.2443 C.3       1 <0>        -0.1716
     29 H2          1.1219    2.3382   -0.6602 H         1 <0>         0.0640
     30 H3         -0.4014    2.4906   -1.5683 H         1 <0>         0.0658
     31 H4         -0.4290    2.4147    0.2098 H         1 <0>         0.0641
     32 H5          1.3260    1.7971    1.1964 H         1 <0>         0.1477
     33 H6          2.3911    0.8104    3.1838 H         1 <0>         0.1428
     34 H7          1.0916   -3.0661    1.9568 H         1 <0>         0.1462
     35 H8         -1.6002   -1.0449   -2.5939 H         1 <0>         0.1712
     36 H9         -1.6030    1.6951    1.7148 H         1 <0>         0.1236
     37 H10        -3.6674    1.9767    2.9892 H         1 <0>         0.1308
     38 H11        -5.7625    0.9519    2.2134 H         1 <0>         0.1650
     39 H12        -6.0721   -1.3661   -0.4029 H         1 <0>         0.4220
     40 H13        -7.1960    1.6185   -1.6980 H         1 <0>         0.1292
     41 H14        -8.2789    2.4197   -0.5345 H         1 <0>         0.1349
     42 H15        -6.5214    2.4085   -0.2527 H         1 <0>         0.1326
     43 H16         0.0232   -0.0923   -2.8953 H         1 <0>         0.1104
     44 H17         2.0474   -1.2852   -0.8177 H         1 <0>         0.0954
     45 H18         1.9113   -1.7598   -2.5947 H         1 <0>         0.0941
     46 H19         2.4253    0.6300   -3.2723 H         1 <0>         0.0956
     47 H20         2.5614    1.1045   -1.4952 H         1 <0>         0.0959
@<TRIPOS>BOND
     1    1    2 1
     2    1   29 1
     3    1   30 1
     4    1   31 1
     5    2    3 1
     6    2   11 1
     7    2   26 1
     8    3    8 ar
     9    3    4 ar
    10    4    5 ar
    11    4   32 1
    12    5    6 ar
    13    5   33 1
    14    6    7 ar
    15    6   10 1
    16    7    8 ar
    17    7   34 1
    18    8    9 1
    19   11   16 1
    20   11   12 2
    21   12   13 1
    22   12   35 1
    23   13   14 1
    24   13   15 1
    25   15   20 ar
    26   15   16 ar
    27   16   17 ar
    28   17   18 ar
    29   17   36 1
    30   18   19 ar
    31   18   37 1
    32   19   20 ar
    33   19   38 1
    34   20   21 1
    35   21   22 1
    36   21   39 1
    37   22   23 2
    38   22   24 2
    39   22   25 1
    40   25   40 1
    41   25   41 1
    42   25   42 1
    43   26   28 1
    44   26   27 1
    45   26   43 1
    46   27   28 1
    47   27   44 1
    48   27   45 1
    49   28   46 1
    50   28   47 1
@<TRIPOS>MOLECULE
CHEMBL1215053
   43    45     0     0     0
SMALL
USER_CHARGES

@<TRIPOS>ATOM
      1 C1          1.1589   -0.4824    0.6990 C.3       1 <0>        -0.1472
      2 C2          0.2397   -0.0937   -0.4606 C.3       1 <0>        -0.1076
      3 C3          0.7753   -0.6974   -1.7604 C.3       1 <0>        -0.1495
      4 C4         -1.1700   -0.6253   -0.1942 C.3       1 <0>         0.1125
      5 C5         -1.1745   -2.1667   -0.1795 C.3       1 <0>        -0.1314
      6 C6         -2.0998   -2.5395   -1.3157 C.2       1 <0>         0.1545
      7 N1         -2.5446   -1.4667   -1.8784 N.2       1 <0>        -0.2476
      8 N2         -2.0698   -0.2872   -1.3084 N.pl3     1 <0>        -0.4604
      9 C7         -2.3942    0.9997   -1.7242 C.ar      1 <0>         0.2896
     10 C8         -3.1358    1.1876   -2.8882 C.ar      1 <0>        -0.1650
     11 C9         -3.4592    2.4591   -3.3028 C.ar      1 <0>        -0.0136
     12 C10        -3.0425    3.5645   -2.5542 C.ar      1 <0>        -0.0843
     13 C11        -2.2976    3.3731   -1.3852 C.ar      1 <0>         0.0550
     14 C12        -1.9819    2.0964   -0.9732 C.ar      1 <0>        -0.1880
     15 Cl1        -1.7771    4.7414   -0.4521 Cl        1 <0>        -0.0527
     16 C13        -3.3770    4.8892   -2.9832 C.1       1 <0>         0.2607
     17 N3         -3.6424    5.9400   -3.3236 N.1       1 <0>        -0.4189
     18 C14        -2.4402   -3.9135   -1.7180 C.ar      1 <0>        -0.0618
     19 C15        -1.8962   -5.0009   -1.0244 C.ar      1 <0>        -0.1009
     20 C16        -2.2118   -6.2753   -1.3976 C.ar      1 <0>        -0.0919
     21 C17        -3.0796   -6.4949   -2.4739 C.ar      1 <0>        -0.1046
     22 C18        -3.6236   -5.4073   -3.1675 C.ar      1 <0>        -0.0930
     23 C19        -3.3124   -4.1329   -2.7907 C.ar      1 <0>        -0.0903
     24 C20        -3.4198   -7.8695   -2.8768 C.2       1 <0>         0.5150
     25 O1         -2.9440   -8.8199   -2.2708 O.co2     1 <0>        -0.6836
     26 O2         -4.1781   -8.0613   -3.8175 O.co2     1 <0>        -0.6826
     27 H1          2.1436   -0.0407    0.5460 H         1 <0>         0.0619
     28 H2          0.7378   -0.1158    1.6351 H         1 <0>         0.0581
     29 H3          1.2503   -1.5677    0.7421 H         1 <0>         0.0613
     30 H4          0.2076    0.9922   -0.5505 H         1 <0>         0.0819
     31 H5          0.8074   -1.7832   -1.6706 H         1 <0>         0.0598
     32 H6          0.1204   -0.4204   -2.5866 H         1 <0>         0.0566
     33 H7          1.7796   -0.3186   -1.9502 H         1 <0>         0.0585
     34 H8         -1.5568   -0.2293    0.7448 H         1 <0>         0.0914
     35 H9         -0.1717   -2.5536   -0.3604 H         1 <0>         0.1101
     36 H10        -1.5637   -2.5388    0.7683 H         1 <0>         0.1036
     37 H11        -3.4572    0.3339   -3.4664 H         1 <0>         0.1488
     38 H12        -4.0339    2.6034   -4.2057 H         1 <0>         0.1442
     39 H13        -1.4105    1.9471   -0.0689 H         1 <0>         0.1433
     40 H14        -1.2265   -4.8315   -0.1943 H         1 <0>         0.1193
     41 H15        -1.7919   -7.1143   -0.8626 H         1 <0>         0.1326
     42 H16        -4.2931   -5.5766   -3.9979 H         1 <0>         0.1320
     43 H17        -3.7355   -3.2938   -3.3229 H         1 <0>         0.1240
@<TRIPOS>BOND
     1    1    2 1
     2    1   27 1
     3    1   28 1
     4    1   29 1
     5    2    3 1
     6    2    4 1
     7    2   30 1
     8    3   31 1
     9    3   32 1
    10    3   33 1
    11    4    8 1
    12    4    5 1
    13    4   34 1
    14    5    6 1
    15    5   35 1
    16    5   36 1
    17    6    7 2
    18    6   18 1
    19    7    8 1
    20    8    9 1
    21    9   14 ar
    22    9   10 ar
    23   10   11 ar
    24   10   37 1
    25   11   12 ar
    26   11   38 1
    27   12   13 ar
    28   12   16 1
    29   13   14 ar
    30   13   15 1
    31   14   39 1
    32   16   17 3
    33   18   23 ar
    34   18   19 ar
    35   19   20 ar
    36   19   40 1
    37   20   21 ar
    38   20   41 1
    39   21   22 ar
    40   21   24 1
    41   22   23 ar
    42   22   42 1
    43   23   43 1
    44   24   25 2
    45   24   26 1
@<TRIPOS>MOLECULE
CHEMBL1215053__1
   43    45     0     0     0
SMALL
USER_CHARGES

@<TRIPOS>ATOM
      1 C1          0.6690   -0.4454    1.4215 C.3       1 <0>        -0.1501
      2 C2          0.0452   -0.0131    0.0929 C.3       1 <0>        -0.1071
      3 C3          0.9208   -0.4994   -1.0637 C.3       1 <0>        -0.1476
      4 C4         -1.3531   -0.6206   -0.0356 C.3       1 <0>         0.1144
      5 C5         -1.2936   -2.1540    0.1101 C.3       1 <0>        -0.1318
      6 C6         -2.1407   -2.4376    1.3300 C.2       1 <0>         0.1543
      7 N1         -2.5996   -1.3280    1.8028 N.2       1 <0>        -0.2489
      8 N2         -2.2058   -0.1992    1.0872 N.pl3     1 <0>        -0.4605
      9 C7         -2.5601    1.1122    1.3858 C.ar      1 <0>         0.2897
     10 C8         -2.2336    2.1385    0.5025 C.ar      1 <0>        -0.1912
     11 C9         -2.5827    3.4371    0.7939 C.ar      1 <0>        -0.0099
     12 C10        -3.2665    3.7269    1.9790 C.ar      1 <0>        -0.0860
     13 C11        -3.5933    2.6941    2.8648 C.ar      1 <0>         0.0521
     14 C12        -3.2451    1.3950    2.5638 C.ar      1 <0>        -0.1631
     15 Cl1        -4.4415    3.0477    4.3376 Cl        1 <0>        -0.0496
     16 C13        -3.6308    5.0774    2.2855 C.1       1 <0>         0.2608
     17 N3         -3.9199    6.1488    2.5286 N.1       1 <0>        -0.4193
     18 C14        -2.4019   -3.7726    1.8911 C.ar      1 <0>        -0.0620
     19 C15        -1.8418   -4.9061    1.2903 C.ar      1 <0>        -0.1010
     20 C16        -2.0840   -6.1445    1.8107 C.ar      1 <0>        -0.0920
     21 C17        -2.8926   -6.2809    2.9454 C.ar      1 <0>        -0.1046
     22 C18        -3.4527   -5.1473    3.5462 C.ar      1 <0>        -0.0928
     23 C19        -3.2057   -3.9085    3.0290 C.ar      1 <0>        -0.0902
     24 C20        -3.1543   -7.6166    3.5065 C.2       1 <0>         0.5150
     25 O1         -2.6651   -8.6074    2.9812 O.co2     1 <0>        -0.6837
     26 O2         -3.8610   -7.7359    4.4981 O.co2     1 <0>        -0.6825
     27 H1          1.6897   -0.0680    1.4834 H         1 <0>         0.0586
     28 H2          0.0819   -0.0423    2.2467 H         1 <0>         0.0562
     29 H3          0.6797   -1.5337    1.4808 H         1 <0>         0.0598
     30 H4         -0.0267    1.0741    0.0620 H         1 <0>         0.0826
     31 H5          0.9928   -1.5866   -1.0328 H         1 <0>         0.0613
     32 H6          0.4765   -0.1915   -2.0102 H         1 <0>         0.0579
     33 H7          1.9170   -0.0666   -0.9722 H         1 <0>         0.0619
     34 H8         -1.8056   -0.3407   -0.9869 H         1 <0>         0.0919
     35 H9         -1.7167   -2.6383   -0.7701 H         1 <0>         0.1037
     36 H10        -0.2673   -2.4831    0.2724 H         1 <0>         0.1101
     37 H11        -1.7053    1.9147   -0.4125 H         1 <0>         0.1395
     38 H12        -2.3287    4.2319    0.1083 H         1 <0>         0.1435
     39 H13        -3.5003    0.5964    3.2446 H         1 <0>         0.1527
     40 H14        -1.2183   -4.8009    0.4148 H         1 <0>         0.1192
     41 H15        -1.6522   -7.0190    1.3470 H         1 <0>         0.1326
     42 H16        -4.0765   -5.2525    4.4216 H         1 <0>         0.1320
     43 H17        -3.6342   -3.0335    3.4951 H         1 <0>         0.1240
@<TRIPOS>BOND
     1    1    2 1
     2    1   27 1
     3    1   28 1
     4    1   29 1
     5    2    3 1
     6    2    4 1
     7    2   30 1
     8    3   31 1
     9    3   32 1
    10    3   33 1
    11    4    8 1
    12    4    5 1
    13    4   34 1
    14    5    6 1
    15    5   35 1
    16    5   36 1
    17    6    7 2
    18    6   18 1
    19    7    8 1
    20    8    9 1
    21    9   14 ar
    22    9   10 ar
    23   10   11 ar
    24   10   37 1
    25   11   12 ar
    26   11   38 1
    27   12   13 ar
    28   12   16 1
    29   13   14 ar
    30   13   15 1
    31   14   39 1
    32   16   17 3
    33   18   23 ar
    34   18   19 ar
    35   19   20 ar
    36   19   40 1
    37   20   21 ar
    38   20   41 1
    39   21   22 ar
    40   21   24 1
    41   22   23 ar
    42   22   42 1
    43   23   43 1
    44   24   25 2
    45   24   26 1
@<TRIPOS>MOLECULE
CHEMBL95644
   57    61     0     0     0
SMALL
USER_CHARGES

@<TRIPOS>ATOM
      1 C1          0.0050    1.4158   -0.0028 C.3       1 <0>        -0.1296
      2 C2         -0.0007   -0.0909    0.0253 C.2       1 <0>        -0.0573
      3 C3         -0.1003   -0.7165   -1.1470 C.2       1 <0>        -0.1726
      4 C4         -0.0825   -2.2179   -1.2271 C.3       1 <0>         0.2135
      5 N1          0.7317   -2.7477   -0.1269 N.pl3     1 <0>        -0.7346
      6 C5          0.5800   -2.1950    1.1455 C.ar      1 <0>         0.2202
      7 C6          0.1110   -0.8662    1.2682 C.ar      1 <0>        -0.0855
      8 C7         -0.3080   -0.4427    2.5223 C.ar      1 <0>        -0.0659
      9 C8          0.1607   -1.1293    3.6519 C.ar      1 <0>        -0.0717
     10 C9          0.7838   -2.3636    3.5187 C.ar      1 <0>        -0.0466
     11 C10         0.9729   -2.9060    2.2627 C.ar      1 <0>        -0.1816
     12 C11         0.0291   -0.4858    4.9806 C.ar      1 <0>        -0.1386
     13 C12        -0.9497    0.5103    5.1143 C.ar      1 <0>         0.1679
     14 C13        -1.1245    1.1532    6.3276 C.ar      1 <0>        -0.1788
     15 C14        -0.3459    0.8042    7.4155 C.ar      1 <0>        -0.0458
     16 C15         0.6140   -0.1809    7.2945 C.ar      1 <0>        -0.2370
     17 C16         0.8117   -0.8234    6.0767 C.ar      1 <0>         0.1702
     18 O1          1.7974   -1.7549    5.9900 O.3       1 <0>        -0.3097
     19 C17         2.5414   -2.0248    7.1799 C.3       1 <0>         0.0240
     20 O2         -1.7260    0.8161    4.0567 O.3       1 <0>        -0.3058
     21 C18        -1.2394    0.7186    2.7221 C.3       1 <0>         0.1919
     22 C19        -2.4544    0.5235    1.8521 C.ar      1 <0>        -0.0808
     23 C20        -3.2953   -0.5521    2.0701 C.ar      1 <0>        -0.0501
     24 C21        -4.4096   -0.7310    1.2723 C.ar      1 <0>        -0.1204
     25 C22        -4.6837    0.1659    0.2564 C.ar      1 <0>        -0.0621
     26 C23        -3.8436    1.2417    0.0391 C.ar      1 <0>        -0.1843
     27 C24        -2.7313    1.4231    0.8400 C.ar      1 <0>        -0.0518
     28 C25        -4.1421    2.2191   -1.0684 C.3       1 <0>         0.5089
     29 F1         -5.3110    1.8300   -1.7313 F         1 <0>        -0.1760
     30 F2         -4.3162    3.4976   -0.5278 F         1 <0>        -0.1753
     31 F3         -3.0762    2.2371   -1.9744 F         1 <0>        -0.1760
     32 C26         0.5243   -2.6512   -2.5628 C.3       1 <0>        -0.1531
     33 C27        -1.5086   -2.7576   -1.1169 C.3       1 <0>        -0.1554
     34 H1          0.0115    1.7982    1.0179 H         1 <0>         0.0638
     35 H2          0.8937    1.7661   -0.5278 H         1 <0>         0.0737
     36 H3         -0.8862    1.7729   -0.5189 H         1 <0>         0.0761
     37 H4         -0.1960   -0.1313   -2.0478 H         1 <0>         0.1233
     38 H5          1.3627   -3.4688   -0.2815 H         1 <0>         0.4021
     39 H6          1.0977   -2.9267    4.3828 H         1 <0>         0.1371
     40 H7          1.4262   -3.8807    2.1547 H         1 <0>         0.1263
     41 H8         -1.8701    1.9289    6.4238 H         1 <0>         0.1351
     42 H9         -0.4892    1.3033    8.3617 H         1 <0>         0.1343
     43 H10         1.2170   -0.4564    8.1474 H         1 <0>         0.1337
     44 H11         3.0306   -1.1112    7.5176 H         1 <0>         0.0581
     45 H12         1.8664   -2.3840    7.9567 H         1 <0>         0.0581
     46 H13         3.2945   -2.7850    6.9729 H         1 <0>         0.1018
     47 H14        -0.7503    1.6516    2.4610 H         1 <0>         0.0955
     48 H15        -3.0811   -1.2528    2.8636 H         1 <0>         0.1307
     49 H16        -5.0660   -1.5716    1.4421 H         1 <0>         0.1372
     50 H17        -5.5540    0.0258   -0.3675 H         1 <0>         0.1399
     51 H18        -2.0769    2.2658    0.6726 H         1 <0>         0.1394
     52 H19         1.5432   -2.2716   -2.6392 H         1 <0>         0.0631
     53 H20         0.5369   -3.7396   -2.6201 H         1 <0>         0.0634
     54 H21        -0.0748   -2.2512   -3.3809 H         1 <0>         0.0747
     55 H22        -2.1118   -2.3596   -1.9329 H         1 <0>         0.0653
     56 H23        -1.4908   -3.8459   -1.1754 H         1 <0>         0.0591
     57 H24        -1.9401   -2.4520   -0.1637 H         1 <0>         0.0577
@<TRIPOS>BOND
     1    1    2 1
     2    1   34 1
     3    1   35 1
     4    1   36 1
     5    2    7 1
     6    2    3 2
     7    3    4 1
     8    3   37 1
     9    4    5 1
    10    4   32 1
    11    4   33 1
    12    5    6 1
    13    5   38 1
    14    6   11 ar
    15    6    7 ar
    16    7    8 ar
    17    8   21 1
    18    8    9 ar
    19    9   10 ar
    20    9   12 1
    21   10   11 ar
    22   10   39 1
    23   11   40 1
    24   12   17 ar
    25   12   13 ar
    26   13   14 ar
    27   13   20 1
    28   14   15 ar
    29   14   41 1
    30   15   16 ar
    31   15   42 1
    32   16   17 ar
    33   16   43 1
    34   17   18 1
    35   18   19 1
    36   19   44 1
    37   19   45 1
    38   19   46 1
    39   20   21 1
    40   21   22 1
    41   21   47 1
    42   22   27 ar
    43   22   23 ar
    44   23   24 ar
    45   23   48 1
    46   24   25 ar
    47   24   49 1
    48   25   26 ar
    49   25   50 1
    50   26   27 ar
    51   26   28 1
    52   27   51 1
    53   28   29 1
    54   28   30 1
    55   28   31 1
    56   32   52 1
    57   32   53 1
    58   32   54 1
    59   33   55 1
    60   33   56 1
    61   33   57 1
@<TRIPOS>MOLECULE
CHEMBL95644__1
   57    61     0     0     0
SMALL
USER_CHARGES

@<TRIPOS>ATOM
      1 C1         -0.4390    1.9218    0.0415 C.3       1 <0>        -0.1243
      2 C2         -0.3526    0.4345   -0.1798 C.2       1 <0>        -0.0647
      3 C3         -0.5864    0.0194   -1.4276 C.2       1 <0>        -0.1726
      4 C4         -0.5218   -1.4333   -1.7994 C.3       1 <0>         0.2120
      5 N1          0.4259   -2.1156   -0.9137 N.pl3     1 <0>        -0.7357
      6 C5          0.4261   -1.8078    0.4466 C.ar      1 <0>         0.2216
      7 C6         -0.0231   -0.5358    0.8763 C.ar      1 <0>        -0.0894
      8 C7         -0.1779   -0.3272    2.2385 C.ar      1 <0>        -0.0602
      9 C8          0.3091   -1.2791    3.1520 C.ar      1 <0>        -0.0688
     10 C9          0.8843   -2.4600    2.7007 C.ar      1 <0>        -0.0446
     11 C10         0.9384   -2.7214    1.3475 C.ar      1 <0>        -0.1824
     12 C11         0.1602   -1.0107    4.6024 C.ar      1 <0>        -0.1252
     13 C12        -0.8456   -0.1078    4.9869 C.ar      1 <0>         0.1508
     14 C13        -1.0669    0.1662    6.3214 C.ar      1 <0>        -0.1710
     15 C14        -0.2896   -0.4460    7.2889 C.ar      1 <0>        -0.0495
     16 C15         0.7111   -1.3241    6.9221 C.ar      1 <0>        -0.2299
     17 C16         0.9452   -1.6056    5.5802 C.ar      1 <0>         0.1654
     18 O1          1.9661   -2.4434    5.2600 O.3       1 <0>        -0.3101
     19 C17         2.7113   -3.0019    6.3438 C.3       1 <0>         0.0242
     20 O2         -1.5754    0.4941    4.0114 O.3       1 <0>        -0.2995
     21 C18        -0.8466    0.8838    2.8342 C.3       1 <0>         0.1802
     22 C19         0.1929    1.8947    3.2448 C.ar      1 <0>        -0.1205
     23 C20         1.4367    1.8915    2.6413 C.ar      1 <0>        -0.0617
     24 C21         2.3900    2.8186    3.0179 C.ar      1 <0>        -0.1214
     25 C22         2.0997    3.7496    3.9979 C.ar      1 <0>        -0.0642
     26 C23         0.8559    3.7535    4.6007 C.ar      1 <0>        -0.1836
     27 C24        -0.0992    2.8288    4.2209 C.ar      1 <0>        -0.0438
     28 C25         0.5395    4.7680    5.6692 C.3       1 <0>         0.5090
     29 F1          1.6524    5.5903    5.8756 F         1 <0>        -0.1770
     30 F2         -0.5483    5.5485    5.2637 F         1 <0>        -0.1756
     31 F3          0.2209    4.1068    6.8603 F         1 <0>        -0.1744
     32 C26        -1.9074   -2.0655   -1.6553 C.3       1 <0>        -0.1581
     33 C27        -0.0520   -1.5697   -3.2499 C.3       1 <0>        -0.1530
     34 H1          0.4919    2.2782    0.4825 H         1 <0>         0.0717
     35 H2         -0.6040    2.4221   -0.9127 H         1 <0>         0.0711
     36 H3         -1.2675    2.1414    0.7150 H         1 <0>         0.0693
     37 H4         -0.8265    0.7555   -2.1812 H         1 <0>         0.1245
     38 H5          1.0473   -2.7746   -1.2691 H         1 <0>         0.4027
     39 H6          1.2712   -3.1913    3.3925 H         1 <0>         0.1371
     40 H7          1.3808   -3.6411    0.9903 H         1 <0>         0.1268
     41 H8         -1.8449    0.8563    6.6136 H         1 <0>         0.1343
     42 H9         -0.4669   -0.2353    8.3325 H         1 <0>         0.1337
     43 H10         1.3186   -1.7973    7.6801 H         1 <0>         0.1331
     44 H11         3.1632   -2.1988    6.9260 H         1 <0>         0.0575
     45 H12         2.0450   -3.5826    6.9818 H         1 <0>         0.0579
     46 H13         3.4942   -3.6504    5.9505 H         1 <0>         0.1018
     47 H14        -1.5624    1.3160    2.1486 H         1 <0>         0.1397
     48 H15         1.6636    1.1642    1.8757 H         1 <0>         0.1364
     49 H16         3.3619    2.8156    2.5469 H         1 <0>         0.1370
     50 H17         2.8448    4.4736    4.2927 H         1 <0>         0.1397
     51 H18        -1.0724    2.8342    4.6892 H         1 <0>         0.1386
     52 H19        -2.6100   -1.5552   -2.3141 H         1 <0>         0.0664
     53 H20        -1.8556   -3.1200   -1.9263 H         1 <0>         0.0601
     54 H21        -2.2439   -1.9718   -0.6228 H         1 <0>         0.0578
     55 H22         0.9371   -1.1239   -3.3549 H         1 <0>         0.0631
     56 H23        -0.0054   -2.6249   -3.5190 H         1 <0>         0.0636
     57 H24        -0.7532   -1.0574   -3.9086 H         1 <0>         0.0746
@<TRIPOS>BOND
     1    1    2 1
     2    1   34 1
     3    1   35 1
     4    1   36 1
     5    2    7 1
     6    2    3 2
     7    3    4 1
     8    3   37 1
     9    4    5 1
    10    4   32 1
    11    4   33 1
    12    5    6 1
    13    5   38 1
    14    6   11 ar
    15    6    7 ar
    16    7    8 ar
    17    8   21 1
    18    8    9 ar
    19    9   10 ar
    20    9   12 1
    21   10   11 ar
    22   10   39 1
    23   11   40 1
    24   12   17 ar
    25   12   13 ar
    26   13   14 ar
    27   13   20 1
    28   14   15 ar
    29   14   41 1
    30   15   16 ar
    31   15   42 1
    32   16   17 ar
    33   16   43 1
    34   17   18 1
    35   18   19 1
    36   19   44 1
    37   19   45 1
    38   19   46 1
    39   20   21 1
    40   21   22 1
    41   21   47 1
    42   22   27 ar
    43   22   23 ar
    44   23   24 ar
    45   23   48 1
    46   24   25 ar
    47   24   49 1
    48   25   26 ar
    49   25   50 1
    50   26   27 ar
    51   26   28 1
    52   27   51 1
    53   28   29 1
    54   28   30 1
    55   28   31 1
    56   32   52 1
    57   32   53 1
    58   32   54 1
    59   33   55 1
    60   33   56 1
    61   33   57 1
@<TRIPOS>MOLECULE
CHEMBL195962
   69    72     0     0     0
SMALL
USER_CHARGES

@<TRIPOS>ATOM
      1 C1         -2.3456   -6.0627   -0.9510 C.3       1 <0>        -0.1033
      2 C2         -3.2950   -6.8927   -0.1261 C.2       1 <0>         0.1566
      3 C3         -4.4528   -6.2664    0.5300 C.ar      1 <0>        -0.0554
      4 C4         -4.8871   -4.9847    0.2269 C.ar      1 <0>        -0.1074
      5 C5         -5.9859   -4.4626    0.8971 C.ar      1 <0>         0.1799
      6 C6         -6.6499   -5.2132    1.8664 C.ar      1 <0>        -0.1057
      7 C7         -6.2302   -6.4897    2.1754 C.ar      1 <0>        -0.0264
      8 C8         -5.1349   -7.0268    1.5110 C.ar      1 <0>        -0.1649
      9 C9         -4.6257   -8.3849    1.7684 C.2       1 <0>         0.4860
     10 O1         -4.7898   -8.9325    2.8421 O.2       1 <0>        -0.4341
     11 O2         -3.9681   -8.9952    0.7574 O.3       1 <0>        -0.1622
     12 N1         -3.1034   -8.1677    0.0089 N.2       1 <0>        -0.2546
     13 N2         -6.4292   -3.1741    0.5978 N.am      1 <0>        -0.6793
     14 C10        -7.7479   -2.8962    0.6066 C.2       1 <0>         0.5030
     15 O3         -8.5437   -3.7422    0.9557 O.2       1 <0>        -0.4998
     16 C11        -8.2338   -1.5341    0.1827 C.3       1 <0>         0.1362
     17 C12        -8.9231   -0.8481    1.3639 C.3       1 <0>        -0.1022
     18 C13        -9.5510    0.4660    0.8949 C.3       1 <0>        -0.0833
     19 C14        -8.4455    1.4468    0.4991 C.3       1 <0>        -0.1181
     20 C15        -9.0734    2.7609    0.0302 C.3       1 <0>        -0.1209
     21 C16        -9.9062    3.3616    1.1644 C.3       1 <0>        -0.1215
     22 C17       -11.0117    2.3807    1.5602 C.3       1 <0>        -0.1191
     23 C18       -10.3838    1.0667    2.0291 C.3       1 <0>        -0.1163
     24 C19        -9.2274   -1.6833   -0.9711 C.3       1 <0>        -0.1368
     25 C20        -8.4703   -2.0302   -2.2546 C.3       1 <0>        -0.0149
     26 C21        -7.7111   -0.7968   -2.7480 C.3       1 <0>        -0.1521
     27 C22        -7.4784   -3.1603   -1.9720 C.3       1 <0>        -0.1612
     28 C23        -9.4492   -2.4735   -3.3111 C.ar      1 <0>        -0.0650
     29 C24       -10.8015   -2.5081   -3.0295 C.ar      1 <0>        -0.1432
     30 C25       -11.7010   -2.9148   -3.9999 C.ar      1 <0>         0.0969
     31 C26       -11.2471   -3.2879   -5.2538 C.ar      1 <0>        -0.1417
     32 C27        -9.8958   -3.2542   -5.5380 C.ar      1 <0>        -0.1122
     33 C28        -8.9937   -2.8414   -4.5683 C.ar      1 <0>         0.0996
     34 O4         -7.6640   -2.8024   -4.8485 O.3       1 <0>        -0.4860
     35 F1        -13.0230   -2.9482   -3.7232 F         1 <0>        -0.1360
     36 O5         -7.1226   -0.7438   -0.2448 O.3       1 <0>        -0.5317
     37 H1         -1.5612   -6.7023   -1.3556 H         1 <0>         0.0943
     38 H2         -2.8906   -5.5938   -1.7703 H         1 <0>         0.0992
     39 H3         -1.8982   -5.2915   -0.3239 H         1 <0>         0.0987
     40 H4         -4.3764   -4.3987   -0.5228 H         1 <0>         0.1501
     41 H5         -7.5006   -4.7907    2.3803 H         1 <0>         0.1553
     42 H6         -6.7482   -7.0666    2.9273 H         1 <0>         0.1504
     43 H7         -5.7883   -2.4783    0.3834 H         1 <0>         0.4151
     44 H8         -9.7005   -1.5012    1.7601 H         1 <0>         0.0876
     45 H9         -8.1893   -0.6423    2.1432 H         1 <0>         0.0776
     46 H10       -10.1927    0.2754    0.0346 H         1 <0>         0.0764
     47 H11        -7.8038    1.6375    1.3594 H         1 <0>         0.0566
     48 H12        -7.8522    1.0189   -0.3089 H         1 <0>         0.0950
     49 H13        -8.2858    3.4597   -0.2518 H         1 <0>         0.0591
     50 H14        -9.7151    2.5702   -0.8301 H         1 <0>         0.0579
     51 H15        -9.2645    3.5522    2.0247 H         1 <0>         0.0598
     52 H16       -10.3535    4.2977    0.8303 H         1 <0>         0.0582
     53 H17       -11.6050    2.8087    2.3682 H         1 <0>         0.0605
     54 H18       -11.6534    2.1901    0.6999 H         1 <0>         0.0606
     55 H19       -11.1714    0.3679    2.3111 H         1 <0>         0.0607
     56 H20        -9.7421    1.2573    2.8894 H         1 <0>         0.0619
     57 H21        -9.9352   -2.4795   -0.7404 H         1 <0>         0.0889
     58 H22        -9.7670   -0.7464   -1.1094 H         1 <0>         0.1006
     59 H23        -6.8734   -0.5947   -2.0805 H         1 <0>         0.0781
     60 H24        -7.3372   -0.9793   -3.7554 H         1 <0>         0.0725
     61 H25        -8.3820    0.0622   -2.7595 H         1 <0>         0.0575
     62 H26        -7.9342   -3.8831   -1.2953 H         1 <0>         0.0654
     63 H27        -7.2143   -3.6543   -2.9071 H         1 <0>         0.0654
     64 H28        -6.5799   -2.7486   -1.5122 H         1 <0>         0.0587
     65 H29       -11.1568   -2.2180   -2.0517 H         1 <0>         0.1434
     66 H30       -11.9499   -3.6057   -6.0098 H         1 <0>         0.1404
     67 H31        -9.5420   -3.5456   -6.5160 H         1 <0>         0.1402
     68 H32        -7.1970   -3.6268   -4.6551 H         1 <0>         0.3856
     69 H33        -6.4289   -1.2490   -0.6905 H         1 <0>         0.3657
@<TRIPOS>BOND
     1    1    2 1
     2    1   37 1
     3    1   38 1
     4    1   39 1
     5    2   12 2
     6    2    3 1
     7    3    8 ar
     8    3    4 ar
     9    4    5 ar
    10    4   40 1
    11    5    6 ar
    12    5   13 1
    13    6    7 ar
    14    6   41 1
    15    7    8 ar
    16    7   42 1
    17    8    9 1
    18    9   10 2
    19    9   11 1
    20   11   12 1
    21   13   14 am
    22   13   43 1
    23   14   15 2
    24   14   16 1
    25   16   17 1
    26   16   24 1
    27   16   36 1
    28   17   18 1
    29   17   44 1
    30   17   45 1
    31   18   23 1
    32   18   19 1
    33   18   46 1
    34   19   20 1
    35   19   47 1
    36   19   48 1
    37   20   21 1
    38   20   49 1
    39   20   50 1
    40   21   22 1
    41   21   51 1
    42   21   52 1
    43   22   23 1
    44   22   53 1
    45   22   54 1
    46   23   55 1
    47   23   56 1
    48   24   25 1
    49   24   57 1
    50   24   58 1
    51   25   26 1
    52   25   27 1
    53   25   28 1
    54   26   59 1
    55   26   60 1
    56   26   61 1
    57   27   62 1
    58   27   63 1
    59   27   64 1
    60   28   33 ar
    61   28   29 ar
    62   29   30 ar
    63   29   65 1
    64   30   31 ar
    65   30   35 1
    66   31   32 ar
    67   31   66 1
    68   32   33 ar
    69   32   67 1
    70   33   34 1
    71   34   68 1
    72   36   69 1
@<TRIPOS>MOLECULE
CHEMBL195962__1
   69    72     0     0     0
SMALL
USER_CHARGES

@<TRIPOS>ATOM
      1 C1         -2.5133   -4.4365   -2.9676 C.3       1 <0>        -0.1040
      2 C2         -1.7569   -4.3529   -1.6669 C.2       1 <0>         0.1601
      3 C3         -2.1018   -3.3273   -0.6707 C.ar      1 <0>        -0.0544
      4 C4         -3.2673   -2.5785   -0.7341 C.ar      1 <0>        -0.0887
      5 C5         -3.5163   -1.6237    0.2432 C.ar      1 <0>         0.1812
      6 C6         -2.6080   -1.4141    1.2800 C.ar      1 <0>        -0.1341
      7 C7         -1.4468   -2.1535    1.3565 C.ar      1 <0>        -0.0232
      8 C8         -1.1856   -3.1146    0.3882 C.ar      1 <0>        -0.1707
      9 C9          0.0225   -3.9575    0.3981 C.2       1 <0>         0.4870
     10 O1          1.0535   -3.5847    0.9247 O.2       1 <0>        -0.4372
     11 O2         -0.0669   -5.1643   -0.2043 O.3       1 <0>        -0.1631
     12 N1         -0.7985   -5.1875   -1.4113 N.2       1 <0>        -0.2559
     13 N2         -4.6867   -0.8664    0.1867 N.am      1 <0>        -0.6641
     14 C10        -5.8078   -1.3971   -0.3405 C.2       1 <0>         0.4941
     15 O3         -5.8272   -2.5621   -0.6768 O.2       1 <0>        -0.5031
     16 C11        -7.0373   -0.5427   -0.5122 C.3       1 <0>         0.1366
     17 C12        -6.9494    0.2171   -1.8372 C.3       1 <0>        -0.1196
     18 C13        -5.6293    0.9884   -1.8963 C.3       1 <0>        -0.0990
     19 C14        -5.6659    2.1398   -0.8894 C.3       1 <0>        -0.1203
     20 C15        -4.3458    2.9110   -0.9484 C.3       1 <0>        -0.1225
     21 C16        -4.1456    3.4721   -2.3577 C.3       1 <0>        -0.1210
     22 C17        -4.1091    2.3208   -3.3646 C.3       1 <0>        -0.1192
     23 C18        -5.4291    1.5495   -3.3056 C.3       1 <0>        -0.1140
     24 C19        -8.2810   -1.4337   -0.5167 C.3       1 <0>        -0.1339
     25 C20        -9.5129   -0.5884   -0.8466 C.3       1 <0>        -0.0081
     26 C21        -9.3917    0.7767   -0.1662 C.3       1 <0>        -0.1436
     27 C22        -9.6089   -0.3964   -2.3615 C.3       1 <0>        -0.1746
     28 C23       -10.7509   -1.2893   -0.3496 C.ar      1 <0>        -0.0646
     29 C24       -10.6440   -2.5059    0.2966 C.ar      1 <0>        -0.1476
     30 C25       -11.7810   -3.1499    0.7537 C.ar      1 <0>         0.0948
     31 C26       -13.0269   -2.5760    0.5637 C.ar      1 <0>        -0.1431
     32 C27       -13.1366   -1.3599   -0.0819 C.ar      1 <0>        -0.1133
     33 C28       -11.9975   -0.7107   -0.5354 C.ar      1 <0>         0.1025
     34 O4        -12.1036    0.4889   -1.1660 O.3       1 <0>        -0.4869
     35 F1        -11.6751   -4.3394    1.3853 F         1 <0>        -0.1372
     36 O5         -7.1236    0.3901    0.5670 O.3       1 <0>        -0.5323
     37 H1         -2.1173   -5.2569   -3.5661 H         1 <0>         0.0941
     38 H2         -3.5694   -4.6127   -2.7631 H         1 <0>         0.1014
     39 H3         -2.4003   -3.5003   -3.5144 H         1 <0>         0.0971
     40 H4         -3.9743   -2.7365   -1.5351 H         1 <0>         0.1590
     41 H5         -2.8158   -0.6652    2.0300 H         1 <0>         0.1450
     42 H6         -0.7466   -1.9868    2.1617 H         1 <0>         0.1511
     43 H7         -4.6935    0.0419    0.5269 H         1 <0>         0.4225
     44 H8         -6.9943   -0.4902   -2.6653 H         1 <0>         0.0876
     45 H9         -7.7823    0.9163   -1.9111 H         1 <0>         0.1136
     46 H10        -4.8055    0.3179   -1.6518 H         1 <0>         0.0705
     47 H11        -6.4897    2.8103   -1.1339 H         1 <0>         0.0639
     48 H12        -5.8085    1.7400    0.1146 H         1 <0>         0.0873
     49 H13        -4.3718    3.7313   -0.2311 H         1 <0>         0.0618
     50 H14        -3.5220    2.2405   -0.7039 H         1 <0>         0.0557
     51 H15        -4.9694    4.1427   -2.6022 H         1 <0>         0.0618
     52 H16        -3.2051    4.0216   -2.3998 H         1 <0>         0.0589
     53 H17        -3.9664    2.7205   -4.3686 H         1 <0>         0.0615
     54 H18        -3.2852    1.6502   -3.1201 H         1 <0>         0.0587
     55 H19        -5.4031    0.7293   -4.0229 H         1 <0>         0.0600
     56 H20        -6.2529    2.2200   -3.5501 H         1 <0>         0.0646
     57 H21        -8.1652   -2.2155   -1.2675 H         1 <0>         0.0919
     58 H22        -8.4053   -1.8891    0.4658 H         1 <0>         0.0787
     59 H23        -8.5633    1.3305   -0.6078 H         1 <0>         0.0804
     60 H24       -10.3173    1.3353   -0.3052 H         1 <0>         0.0648
     61 H25        -9.2084    0.6366    0.8991 H         1 <0>         0.0578
     62 H26        -9.8324   -1.3522   -2.8354 H         1 <0>         0.0558
     63 H27       -10.4024    0.3157   -2.5879 H         1 <0>         0.0635
     64 H28        -8.6603   -0.0161   -2.7404 H         1 <0>         0.0869
     65 H29        -9.6730   -2.9549    0.4447 H         1 <0>         0.1434
     66 H30       -13.9132   -3.0798    0.9202 H         1 <0>         0.1394
     67 H31       -14.1085   -0.9127   -0.2302 H         1 <0>         0.1394
     68 H32       -12.2111    0.4212   -2.1246 H         1 <0>         0.3875
     69 H33        -7.1823   -0.0223    1.4396 H         1 <0>         0.3773
@<TRIPOS>BOND
     1    1    2 1
     2    1   37 1
     3    1   38 1
     4    1   39 1
     5    2   12 2
     6    2    3 1
     7    3    8 ar
     8    3    4 ar
     9    4    5 ar
    10    4   40 1
    11    5    6 ar
    12    5   13 1
    13    6    7 ar
    14    6   41 1
    15    7    8 ar
    16    7   42 1
    17    8    9 1
    18    9   10 2
    19    9   11 1
    20   11   12 1
    21   13   14 am
    22   13   43 1
    23   14   15 2
    24   14   16 1
    25   16   17 1
    26   16   24 1
    27   16   36 1
    28   17   18 1
    29   17   44 1
    30   17   45 1
    31   18   23 1
    32   18   19 1
    33   18   46 1
    34   19   20 1
    35   19   47 1
    36   19   48 1
    37   20   21 1
    38   20   49 1
    39   20   50 1
    40   21   22 1
    41   21   51 1
    42   21   52 1
    43   22   23 1
    44   22   53 1
    45   22   54 1
    46   23   55 1
    47   23   56 1
    48   24   25 1
    49   24   57 1
    50   24   58 1
    51   25   26 1
    52   25   27 1
    53   25   28 1
    54   26   59 1
    55   26   60 1
    56   26   61 1
    57   27   62 1
    58   27   63 1
    59   27   64 1
    60   28   33 ar
    61   28   29 ar
    62   29   30 ar
    63   29   65 1
    64   30   31 ar
    65   30   35 1
    66   31   32 ar
    67   31   66 1
    68   32   33 ar
    69   32   67 1
    70   33   34 1
    71   34   68 1
    72   36   69 1
@<TRIPOS>MOLECULE
CHEMBL130141
   53    57     0     0     0
SMALL
USER_CHARGES

@<TRIPOS>ATOM
      1 C1         -0.5661    1.2925   -0.0396 C.3       1 <0>        -0.1144
      2 C2          0.0172   -0.0964    0.0027 C.ar      1 <0>        -0.1253
      3 C3          0.2913   -0.7759   -1.1636 C.ar      1 <0>         0.0959
      4 N1          0.8024   -1.9931   -1.1360 N.ar      1 <0>        -0.4814
      5 C4          1.0744   -2.6156   -0.0032 C.ar      1 <0>         0.0898
      6 C5          0.8332   -2.0132    1.2111 C.ar      1 <0>        -0.1499
      7 C6          0.2953   -0.7159    1.2316 C.ar      1 <0>        -0.0113
      8 C7          0.0261   -0.0296    2.5018 C.2       1 <0>        -0.1125
      9 C8         -0.0552   -0.7377    3.6471 C.2       1 <0>         0.1305
     10 C9         -0.1012   -0.2159    4.9389 C.ar      1 <0>        -0.0358
     11 C10        -1.0806   -0.8147    5.7679 C.ar      1 <0>        -0.0922
     12 C11        -1.5745   -0.1435    6.8629 C.ar      1 <0>        -0.0546
     13 C12        -1.1004    1.0741    7.2523 C.ar      1 <0>        -0.1655
     14 C13         0.0679    1.5659    6.6420 C.ar      1 <0>         0.2262
     15 C14         0.6426    0.8805    5.5152 C.ar      1 <0>        -0.0922
     16 C15         1.9618    1.2988    5.0546 C.2       1 <0>        -0.0625
     17 C16         2.5155    2.4041    5.5252 C.2       1 <0>        -0.1715
     18 C17         1.9048    3.2448    6.5364 C.3       1 <0>         0.2274
     19 N2          0.6549    2.7638    6.9678 N.pl3     1 <0>        -0.7073
     20 C18         1.8050    4.6952    6.0393 C.3       1 <0>        -0.1577
     21 C19         2.8838    3.3452    7.7796 C.3       1 <0>        -0.1726
     22 C20         2.7439    0.4447    3.9853 C.3       1 <0>        -0.1078
     23 C21        -1.5738   -2.2027    5.3588 C.ar      1 <0>        -0.1046
     24 C22        -2.5691   -2.7805    6.1058 C.ar      1 <0>        -0.1063
     25 C23        -2.9487   -4.0979    5.7331 C.ar      1 <0>         0.0714
     26 C24        -2.3238   -4.7244    4.6024 C.ar      1 <0>        -0.1167
     27 C25        -1.3523   -4.0764    3.9075 C.ar      1 <0>        -0.1192
     28 C26        -0.9010   -2.8031    4.2323 C.ar      1 <0>         0.1292
     29 O1         -0.0350   -2.1105    3.5811 O.3       1 <0>        -0.2298
     30 F1         -3.9088   -4.6984    6.3787 F         1 <0>        -0.1204
     31 H1          0.2408    2.0249   -0.0638 H         1 <0>         0.0756
     32 H2         -1.1820    1.4008   -0.9324 H         1 <0>         0.0735
     33 H3         -1.1790    1.4563    0.8467 H         1 <0>         0.0691
     34 H4          0.0849   -0.3066   -2.1141 H         1 <0>         0.1550
     35 H5          1.4917   -3.6113   -0.0300 H         1 <0>         0.1555
     36 H6          1.0579   -2.5285    2.1333 H         1 <0>         0.1513
     37 H7         -0.1067    1.0421    2.5190 H         1 <0>         0.1525
     38 H8         -2.4187   -0.5496    7.3960 H         1 <0>         0.1270
     39 H9         -1.5102    1.6262    8.0805 H         1 <0>         0.1360
     40 H10         3.5600    2.6413    5.0809 H         1 <0>         0.1364
     41 H11         0.1564    3.3306    7.6908 H         1 <0>         0.4057
     42 H12         1.1966    4.7285    5.1355 H         1 <0>         0.0581
     43 H13         1.3443    5.3127    6.8104 H         1 <0>         0.0616
     44 H14         2.8034    5.0733    5.8193 H         1 <0>         0.0722
     45 H15         3.8314    3.7801    7.4616 H         1 <0>         0.0678
     46 H16         2.4338    3.9756    8.5465 H         1 <0>         0.0597
     47 H17         3.0594    2.3488    8.1852 H         1 <0>         0.0537
     48 H18         2.4881    0.7928    2.9846 H         1 <0>         0.0708
     49 H19         3.8164    0.5557    4.1455 H         1 <0>         0.0668
     50 H20         2.4682   -0.6050    4.0865 H         1 <0>         0.0652
     51 H21        -3.0004   -2.3197    6.9309 H         1 <0>         0.1426
     52 H22        -2.6321   -5.7191    4.2632 H         1 <0>         0.1504
     53 H23        -0.8360   -4.5196    3.0697 H         1 <0>         0.1348
@<TRIPOS>BOND
     1    1    2 1
     2    1   31 1
     3    1   32 1
     4    1   33 1
     5    2    7 ar
     6    2    3 ar
     7    3    4 ar
     8    3   34 1
     9    4    5 ar
    10    5    6 ar
    11    5   35 1
    12    6    7 ar
    13    6   36 1
    14    7    8 1
    15    8    9 2
    16    8   37 1
    17    9   29 1
    18    9   10 1
    19   10   15 ar
    20   10   11 ar
    21   11   12 ar
    22   11   23 1
    23   12   13 ar
    24   12   38 1
    25   13   14 ar
    26   13   39 1
    27   14   19 1
    28   14   15 ar
    29   15   16 1
    30   16   17 2
    31   16   22 1
    32   17   18 1
    33   17   40 1
    34   18   19 1
    35   18   20 1
    36   18   21 1
    37   19   41 1
    38   20   42 1
    39   20   43 1
    40   20   44 1
    41   21   45 1
    42   21   46 1
    43   21   47 1
    44   22   48 1
    45   22   49 1
    46   22   50 1
    47   23   28 ar
    48   23   24 ar
    49   24   25 ar
    50   24   51 1
    51   25   26 ar
    52   25   30 1
    53   26   27 ar
    54   26   52 1
    55   27   28 ar
    56   27   53 1
    57   28   29 1
@<TRIPOS>MOLECULE
CHEMBL1215627
   52    56     0     0     0
SMALL
USER_CHARGES

@<TRIPOS>ATOM
      1 C1         -2.2868    0.7519    0.0420 C.3       1 <0>        -0.1246
      2 C2         -1.1905   -0.2718   -0.1032 C.ar      1 <0>        -0.0080
      3 C3         -1.1120   -1.0403   -1.2426 C.ar      1 <0>        -0.1391
      4 C4         -0.0997   -1.9866   -1.3773 C.ar      1 <0>         0.2652
      5 C5          0.8365   -2.1586   -0.3608 C.ar      1 <0>        -0.1600
      6 C6          0.7634   -1.3934    0.7807 C.ar      1 <0>        -0.0388
      7 C7         -0.2487   -0.4380    0.9165 C.ar      1 <0>        -0.0650
      8 C8         -0.3241    0.3640    2.1005 C.1       1 <0>         0.2631
      9 N1         -0.3839    1.0002    3.0397 N.1       1 <0>        -0.4287
     10 N2         -0.0236   -2.7622   -2.5293 N.pl3     1 <0>        -0.4935
     11 C9          0.1439   -4.2272   -2.5689 C.3       1 <0>         0.1373
     12 H1          1.0173   -4.5294   -1.9910 H         1 <0>         0.0959
     13 C10         0.3531   -4.5219   -4.0558 C.3       1 <0>         0.0817
     14 H2          1.3764   -4.8406   -4.2541 H         1 <0>         0.0946
     15 C11         0.0464   -3.1862   -4.7292 C.2       1 <0>         0.0963
     16 N3         -0.0994   -2.2825   -3.8397 N.2       1 <0>        -0.2108
     17 C12        -0.1560   -3.1547   -6.1882 C.ar      1 <0>        -0.0383
     18 C13        -0.0865   -1.9827   -6.9314 C.ar      1 <0>        -0.0903
     19 C14        -0.2960   -2.0268   -8.2826 C.ar      1 <0>        -0.0862
     20 C15        -0.5788   -3.2512   -8.9002 C.ar      1 <0>        -0.1084
     21 C16        -0.6430   -4.4285   -8.1472 C.ar      1 <0>        -0.0777
     22 C17        -0.4289   -4.3925   -6.7976 C.ar      1 <0>        -0.1146
     23 C18        -0.4691   -5.6615   -5.9933 C.3       1 <0>         0.1054
     24 O1         -0.5887   -5.4553   -4.5846 O.3       1 <0>        -0.3519
     25 C19        -0.8108   -3.3000  -10.3532 C.2       1 <0>         0.5165
     26 O2         -0.7561   -2.2732  -11.0162 O.co2     1 <0>        -0.6821
     27 O3         -1.0582   -4.3673  -10.8977 O.co2     1 <0>        -0.6834
     28 C20        -1.1130   -4.9276   -2.0488 C.3       1 <0>        -0.0849
     29 C21        -0.8896   -6.4586   -1.9760 C.3       1 <0>        -0.1105
     30 C22        -1.9298   -6.9059   -0.9191 C.3       1 <0>        -0.1241
     31 C23        -1.9145   -5.7744    0.1293 C.3       1 <0>        -0.1227
     32 C24        -1.3951   -4.5166   -0.5889 C.3       1 <0>        -0.1221
     33 H3         -1.9493    1.7057   -0.3635 H         1 <0>         0.0811
     34 H4         -3.1702    0.4179   -0.5021 H         1 <0>         0.0783
     35 H5         -2.5339    0.8726    1.0968 H         1 <0>         0.0668
     36 H6         -1.8366   -0.9093   -2.0326 H         1 <0>         0.1372
     37 H7          1.6206   -2.8935   -0.4682 H         1 <0>         0.1326
     38 H8          1.4893   -1.5277    1.5689 H         1 <0>         0.1355
     39 H9          0.1311   -1.0430   -6.4455 H         1 <0>         0.1252
     40 H10        -0.2440   -1.1219   -8.8699 H         1 <0>         0.1347
     41 H11        -0.8622   -5.3677   -8.6332 H         1 <0>         0.1346
     42 H12        -1.3124   -6.2632   -6.3324 H         1 <0>         0.1121
     43 H13         0.4496   -6.2193   -6.1749 H         1 <0>         0.0665
     44 H14        -1.9684   -4.6946   -2.6829 H         1 <0>         0.0847
     45 H15        -1.0931   -6.9249   -2.9399 H         1 <0>         0.0829
     46 H16         0.1228   -6.6858   -1.6418 H         1 <0>         0.0622
     47 H17        -2.9181   -6.9945   -1.3703 H         1 <0>         0.0645
     48 H18        -1.6305   -7.8506   -0.4653 H         1 <0>         0.0629
     49 H19        -2.9226   -5.6002    0.5054 H         1 <0>         0.0598
     50 H20        -1.2489   -6.0364    0.9517 H         1 <0>         0.0605
     51 H21        -0.4774   -4.1682   -0.1151 H         1 <0>         0.0655
     52 H22        -2.1512   -3.7319   -0.5614 H         1 <0>         0.0620
@<TRIPOS>BOND
     1    1    2 1
     2    1   33 1
     3    1   34 1
     4    1   35 1
     5    2    7 ar
     6    2    3 ar
     7    3    4 ar
     8    3   36 1
     9    4    5 ar
    10    4   10 1
    11    5    6 ar
    12    5   37 1
    13    6    7 ar
    14    6   38 1
    15    7    8 1
    16    8    9 3
    17   10   16 1
    18   10   11 1
    19   11   12 1
    20   11   13 1
    21   11   28 1
    22   13   14 1
    23   13   24 1
    24   13   15 1
    25   15   16 2
    26   15   17 1
    27   17   22 ar
    28   17   18 ar
    29   18   19 ar
    30   18   39 1
    31   19   20 ar
    32   19   40 1
    33   20   21 ar
    34   20   25 1
    35   21   22 ar
    36   21   41 1
    37   22   23 1
    38   23   24 1
    39   23   42 1
    40   23   43 1
    41   25   26 2
    42   25   27 1
    43   28   32 1
    44   28   29 1
    45   28   44 1
    46   29   30 1
    47   29   45 1
    48   29   46 1
    49   30   31 1
    50   30   47 1
    51   30   48 1
    52   31   32 1
    53   31   49 1
    54   31   50 1
    55   32   51 1
    56   32   52 1
@<TRIPOS>MOLECULE
CHEMBL1215625
   52    56     0     0     0
SMALL
USER_CHARGES

@<TRIPOS>ATOM
      1 C1         -1.6934   -2.2702    2.1532 C.3       1 <0>        -0.1230
      2 C2         -0.8004   -1.8143    1.0282 C.ar      1 <0>        -0.0092
      3 C3         -0.7979   -2.4947   -0.1684 C.ar      1 <0>        -0.1554
      4 C4          0.0272   -2.0745   -1.2081 C.ar      1 <0>         0.2647
      5 C5          0.8520   -0.9648   -1.0414 C.ar      1 <0>        -0.1419
      6 C6          0.8540   -0.2803    0.1525 C.ar      1 <0>        -0.0389
      7 C7          0.0221   -0.6965    1.1967 C.ar      1 <0>        -0.0637
      8 C8          0.0175    0.0171    2.4382 C.1       1 <0>         0.2629
      9 N1          0.0138    0.5832    3.4231 N.1       1 <0>        -0.4280
     10 N2          0.0282   -2.7647   -2.4156 N.pl3     1 <0>        -0.4947
     11 C9          0.1440   -4.2272   -2.5689 C.3       1 <0>         0.1367
     12 H1         -0.6155   -4.7367   -1.9759 H         1 <0>         0.0952
     13 C10        -0.1001   -4.4494   -4.0631 C.3       1 <0>         0.0810
     14 H2         -1.0535   -4.9486   -4.2365 H         1 <0>         0.0942
     15 C11        -0.1010   -3.0344   -4.6370 C.2       1 <0>         0.0965
     16 N3         -0.0865   -2.1872   -3.6830 N.2       1 <0>        -0.2108
     17 C12        -0.0031   -2.8585   -6.0966 C.ar      1 <0>        -0.0383
     18 C13        -0.3453   -1.6727   -6.7352 C.ar      1 <0>        -0.0904
     19 C14        -0.2190   -1.5771   -8.0940 C.ar      1 <0>        -0.0863
     20 C15         0.2539   -2.6738   -8.8247 C.ar      1 <0>        -0.1084
     21 C16         0.5929   -3.8664   -8.1765 C.ar      1 <0>        -0.0778
     22 C17         0.4632   -3.9709   -6.8198 C.ar      1 <0>        -0.1143
     23 C18         0.7993   -5.2616   -6.1270 C.3       1 <0>         0.1047
     24 O1          0.9677   -5.1380   -4.7137 O.3       1 <0>        -0.3505
     25 C19         0.3961   -2.5711  -10.2865 C.2       1 <0>         0.5165
     26 O2          0.1013   -1.5303  -10.8581 O.co2     1 <0>        -0.6821
     27 O3          0.8089   -3.5266  -10.9296 O.co2     1 <0>        -0.6834
     28 C20         1.5433   -4.7015   -2.1716 C.3       1 <0>        -0.0841
     29 C21         1.6681   -6.2231   -2.3927 C.3       1 <0>        -0.1047
     30 C22         2.5395   -6.7090   -1.2080 C.3       1 <0>        -0.1267
     31 C23         2.0360   -5.8351   -0.0324 C.3       1 <0>        -0.1227
     32 C24         1.7772   -4.4548   -0.6709 C.3       1 <0>        -0.1279
     33 H3         -2.6606   -1.7739    2.0733 H         1 <0>         0.0799
     34 H4         -1.8327   -3.3495    2.0920 H         1 <0>         0.0769
     35 H5         -1.2329   -2.0169    3.1081 H         1 <0>         0.0677
     36 H6         -1.4363   -3.3557   -0.3008 H         1 <0>         0.1330
     37 H7          1.4909   -0.6412   -1.8498 H         1 <0>         0.1374
     38 H8          1.4943    0.5797    0.2814 H         1 <0>         0.1359
     39 H9         -0.7088   -0.8322   -6.1626 H         1 <0>         0.1252
     40 H10        -0.4831   -0.6606   -8.6006 H         1 <0>         0.1347
     41 H11         0.9572   -4.7063   -8.7494 H         1 <0>         0.1345
     42 H12        -0.0044   -5.9751   -6.3090 H         1 <0>         0.0662
     43 H13         1.7190   -5.6591   -6.5563 H         1 <0>         0.1120
     44 H14         2.2962   -4.1753   -2.7584 H         1 <0>         0.0802
     45 H15         0.6859   -6.6948   -2.3625 H         1 <0>         0.0617
     46 H16         2.1633   -6.4315   -3.3411 H         1 <0>         0.0810
     47 H17         2.3634   -7.7657   -1.0068 H         1 <0>         0.0639
     48 H18         3.5955   -6.5225   -1.4032 H         1 <0>         0.0650
     49 H19         1.1132   -6.2441    0.3790 H         1 <0>         0.0623
     50 H20         2.7997   -5.7602    0.7417 H         1 <0>         0.0614
     51 H21         2.6442   -3.8094   -0.5293 H         1 <0>         0.0623
     52 H22         0.8938   -3.9971   -0.2256 H         1 <0>         0.0694
@<TRIPOS>BOND
     1    1    2 1
     2    1   33 1
     3    1   34 1
     4    1   35 1
     5    2    7 ar
     6    2    3 ar
     7    3    4 ar
     8    3   36 1
     9    4    5 ar
    10    4   10 1
    11    5    6 ar
    12    5   37 1
    13    6    7 ar
    14    6   38 1
    15    7    8 1
    16    8    9 3
    17   10   16 1
    18   10   11 1
    19   11   12 1
    20   11   13 1
    21   11   28 1
    22   13   14 1
    23   13   24 1
    24   13   15 1
    25   15   16 2
    26   15   17 1
    27   17   22 ar
    28   17   18 ar
    29   18   19 ar
    30   18   39 1
    31   19   20 ar
    32   19   40 1
    33   20   21 ar
    34   20   25 1
    35   21   22 ar
    36   21   41 1
    37   22   23 1
    38   23   24 1
    39   23   42 1
    40   23   43 1
    41   25   26 2
    42   25   27 1
    43   28   32 1
    44   28   29 1
    45   28   44 1
    46   29   30 1
    47   29   45 1
    48   29   46 1
    49   30   31 1
    50   30   47 1
    51   30   48 1
    52   31   32 1
    53   31   49 1
    54   31   50 1
    55   32   51 1
    56   32   52 1
@<TRIPOS>MOLECULE
CHEMBL236754
   57    59     0     0     0
SMALL
USER_CHARGES

@<TRIPOS>ATOM
      1 C1         -1.7903   -1.8331    0.5139 C.3       1 <0>        -0.1444
      2 C2         -2.5186   -2.8470    1.3580 C.ar      1 <0>        -0.0526
      3 C3         -3.0188   -4.0037    0.7627 C.ar      1 <0>        -0.1143
      4 C4         -3.6816   -4.9390    1.4963 C.ar      1 <0>        -0.0977
      5 C5         -3.8657   -4.7389    2.8751 C.ar      1 <0>        -0.0542
      6 C6         -4.5443   -5.6823    3.6653 C.ar      1 <0>        -0.1074
      7 C7         -4.7034   -5.4549    4.9977 C.ar      1 <0>        -0.1176
      8 C8         -4.2030   -4.2984    5.5930 C.ar      1 <0>        -0.1160
      9 C9         -3.5406   -3.3629    4.8594 C.ar      1 <0>        -0.1269
     10 C10        -3.3568   -3.5629    3.4805 C.ar      1 <0>        -0.0358
     11 C11        -2.6733   -2.6221    2.6913 C.ar      1 <0>        -0.0876
     12 C12        -2.1193   -1.3681    3.3172 C.3       1 <0>        -0.1112
     13 C13        -3.0700   -0.2003    3.0468 C.3       1 <0>         0.0769
     14 C14        -2.4289    1.1019    3.5310 C.3       1 <0>        -0.1426
     15 C15        -3.5208    2.1407    3.7946 C.3       1 <0>        -0.0234
     16 C16        -4.2560    1.7904    5.0899 C.3       1 <0>        -0.0942
     17 C17        -2.8853    3.5261    3.9275 C.3       1 <0>        -0.1393
     18 C18        -4.4982    2.1443    2.6476 C.ar      1 <0>        -0.1012
     19 C19        -4.1616    1.5414    1.4507 C.ar      1 <0>        -0.1798
     20 C20        -5.0594    1.5442    0.3970 C.ar      1 <0>         0.0455
     21 C21        -6.2956    2.1513    0.5406 C.ar      1 <0>        -0.1186
     22 C22        -6.6347    2.7548    1.7359 C.ar      1 <0>        -0.2006
     23 C23        -5.7382    2.7478    2.7946 C.ar      1 <0>         0.1182
     24 O1         -6.0729    3.3364    3.9734 O.3       1 <0>        -0.3044
     25 C24        -7.3663    3.9386    4.0537 C.3       1 <0>         0.0194
     26 F1         -4.7289    0.9543   -0.7727 F         1 <0>        -0.1465
     27 C25        -4.3853   -0.4298    3.7941 C.3       1 <0>         0.4256
     28 F2         -4.1322   -1.1277    4.9799 F         1 <0>        -0.1608
     29 F3         -4.9720    0.8040    4.0952 F         1 <0>        -0.0873
     30 F4         -5.2542   -1.1756    2.9904 F         1 <0>        -0.1665
     31 O2         -3.3284   -0.1112    1.6442 O.3       1 <0>        -0.4703
     32 H1         -0.7177   -2.0200    0.5663 H         1 <0>         0.0719
     33 H2         -2.1233   -1.9153   -0.5208 H         1 <0>         0.0739
     34 H3         -2.0031   -0.8308    0.8855 H         1 <0>         0.0764
     35 H4         -2.8786   -4.1600   -0.2967 H         1 <0>         0.1232
     36 H5         -4.0643   -5.8302    1.0212 H         1 <0>         0.1263
     37 H6         -4.9378   -6.5830    3.2176 H         1 <0>         0.1253
     38 H7         -5.2256   -6.1814    5.6026 H         1 <0>         0.1215
     39 H8         -4.3432   -4.1421    6.6524 H         1 <0>         0.1214
     40 H9         -3.1586   -2.4713    5.3342 H         1 <0>         0.1501
     41 H10        -2.0183   -1.5129    4.3928 H         1 <0>         0.1018
     42 H11        -1.1423   -1.1484    2.8868 H         1 <0>         0.1028
     43 H12        -1.8760    0.9143    4.4514 H         1 <0>         0.1015
     44 H13        -1.7472    1.4770    2.7676 H         1 <0>         0.0966
     45 H14        -3.7663    2.2828    5.9301 H         1 <0>        -0.0471
     46 H15        -5.2902    2.1280    5.0234 H         1 <0>         0.1018
     47 H16        -4.2350    0.7109    5.2390 H         1 <0>         0.0603
     48 H17        -2.4377    3.8133    2.9761 H         1 <0>         0.0543
     49 H18        -3.6504    4.2519    4.2030 H         1 <0>         0.0646
     50 H19        -2.1150    3.5000    4.6982 H         1 <0>         0.0583
     51 H20        -3.1975    1.0681    1.3372 H         1 <0>         0.2575
     52 H21        -6.9948    2.1534   -0.2825 H         1 <0>         0.1259
     53 H22        -7.5988    3.2286    1.8475 H         1 <0>         0.1289
     54 H23        -7.5052    4.3704    5.0448 H         1 <0>         0.0995
     55 H24        -7.4495    4.7225    3.3009 H         1 <0>         0.0553
     56 H25        -8.1309    3.1821    3.8766 H         1 <0>         0.0539
     57 H26        -2.5667    0.1744    1.1213 H         1 <0>         0.4100
@<TRIPOS>BOND
     1    1    2 1
     2    1   32 1
     3    1   33 1
     4    1   34 1
     5    2   11 ar
     6    2    3 ar
     7    3    4 ar
     8    3   35 1
     9    4    5 ar
    10    4   36 1
    11    5   10 ar
    12    5    6 ar
    13    6    7 ar
    14    6   37 1
    15    7    8 ar
    16    7   38 1
    17    8    9 ar
    18    8   39 1
    19    9   10 ar
    20    9   40 1
    21   10   11 ar
    22   11   12 1
    23   12   13 1
    24   12   41 1
    25   12   42 1
    26   13   14 1
    27   13   27 1
    28   13   31 1
    29   14   15 1
    30   14   43 1
    31   14   44 1
    32   15   16 1
    33   15   17 1
    34   15   18 1
    35   16   45 1
    36   16   46 1
    37   16   47 1
    38   17   48 1
    39   17   49 1
    40   17   50 1
    41   18   23 ar
    42   18   19 ar
    43   19   20 ar
    44   19   51 1
    45   20   21 ar
    46   20   26 1
    47   21   22 ar
    48   21   52 1
    49   22   23 ar
    50   22   53 1
    51   23   24 1
    52   24   25 1
    53   25   54 1
    54   25   55 1
    55   25   56 1
    56   27   28 1
    57   27   29 1
    58   27   30 1
    59   31   57 1
@<TRIPOS>MOLECULE
CHEMBL236754__1
   57    59     0     0     0
SMALL
USER_CHARGES

@<TRIPOS>ATOM
      1 C1          0.0415   -2.7204    1.3122 C.3       1 <0>        -0.1514
      2 C2         -0.1974   -3.5915    2.5185 C.ar      1 <0>        -0.0515
      3 C3         -0.4903   -4.9427    2.3424 C.ar      1 <0>        -0.1154
      4 C4         -0.7117   -5.7567    3.4103 C.ar      1 <0>        -0.0986
      5 C5         -0.6442   -5.2303    4.7116 C.ar      1 <0>        -0.0587
      6 C6         -0.8663   -6.0397    5.8388 C.ar      1 <0>        -0.1011
      7 C7         -0.7923   -5.4952    7.0839 C.ar      1 <0>        -0.1220
      8 C8         -0.4991   -4.1441    7.2600 C.ar      1 <0>        -0.1127
      9 C9         -0.2782   -3.3301    6.1920 C.ar      1 <0>        -0.1056
     10 C10        -0.3460   -3.8564    4.8907 C.ar      1 <0>        -0.0206
     11 C11        -0.1184   -3.0482    3.7638 C.ar      1 <0>        -0.0859
     12 C12         0.2061   -1.5863    3.9332 C.3       1 <0>        -0.1162
     13 C13        -1.0882   -0.7974    4.1414 C.3       1 <0>         0.1036
     14 C14        -0.7619    0.6913    4.2767 C.3       1 <0>        -0.1571
     15 C15        -2.0300    1.4589    4.6558 C.3       1 <0>        -0.0121
     16 C16        -2.8868    0.5997    5.5878 C.3       1 <0>        -0.1499
     17 C17        -1.6464    2.7574    5.3682 C.3       1 <0>        -0.1368
     18 C18        -2.8130    1.7822    3.4093 C.ar      1 <0>        -0.0588
     19 C19        -2.2492    1.5731    2.1653 C.ar      1 <0>        -0.1675
     20 C20        -2.9683    1.8695    1.0202 C.ar      1 <0>         0.0692
     21 C21        -4.2531    2.3763    1.1196 C.ar      1 <0>        -0.1241
     22 C22        -4.8192    2.5862    2.3620 C.ar      1 <0>        -0.1760
     23 C23        -4.1018    2.2842    3.5104 C.ar      1 <0>         0.1220
     24 O1         -4.6597    2.4851    4.7337 O.3       1 <0>        -0.3012
     25 C24        -5.9907    3.0046    4.7623 C.3       1 <0>         0.0206
     26 F1         -2.4158    1.6647   -0.1956 F         1 <0>        -0.1403
     27 C25        -2.0135   -1.0097    2.9416 C.3       1 <0>         0.4632
     28 F2         -2.2066   -2.3804    2.7384 F         1 <0>        -0.1607
     29 F3         -3.2465   -0.3968    3.1894 F         1 <0>        -0.1557
     30 F4         -1.4337   -0.4462    1.8000 F         1 <0>        -0.1622
     31 O2         -1.7375   -1.2527    5.3302 O.3       1 <0>        -0.5177
     32 H1          1.0899   -2.7832    1.0205 H         1 <0>         0.0728
     33 H2         -0.5858   -3.0607    0.4883 H         1 <0>         0.0701
     34 H3         -0.2068   -1.6872    1.5551 H         1 <0>         0.0829
     35 H4         -0.5427   -5.3497    1.3434 H         1 <0>         0.1226
     36 H5         -0.9384   -6.8017    3.2585 H         1 <0>         0.1262
     37 H6         -1.0948   -7.0883    5.7176 H         1 <0>         0.1249
     38 H7         -0.9638   -6.1194    7.9484 H         1 <0>         0.1212
     39 H8         -0.4467   -3.7370    8.2590 H         1 <0>         0.1216
     40 H9         -0.0523   -2.2849    6.3437 H         1 <0>         0.1185
     41 H10         0.8544   -1.4561    4.7997 H         1 <0>         0.1004
     42 H11         0.7145   -1.2212    3.0408 H         1 <0>         0.0988
     43 H12        -0.0084    0.8291    5.0521 H         1 <0>         0.0979
     44 H13        -0.3797    1.0672    3.3277 H         1 <0>         0.0938
     45 H14        -2.2932    0.2960    6.4500 H         1 <0>         0.0522
     46 H15        -3.7479    1.1769    5.9246 H         1 <0>         0.0620
     47 H16        -3.2298   -0.2858    5.0526 H         1 <0>         0.0962
     48 H17        -1.1124    3.4078    4.6754 H         1 <0>         0.0537
     49 H18        -2.5482    3.2605    5.7172 H         1 <0>         0.0681
     50 H19        -1.0052    2.5289    6.2196 H         1 <0>         0.0595
     51 H20        -1.2469    1.1786    2.0863 H         1 <0>         0.1722
     52 H21        -4.8128    2.6078    0.2254 H         1 <0>         0.1346
     53 H22        -5.8211    2.9818    2.4393 H         1 <0>         0.1358
     54 H23        -6.3147    3.1168    5.7969 H         1 <0>         0.1006
     55 H24        -6.0124    3.9756    4.2675 H         1 <0>         0.0546
     56 H25        -6.6600    2.3178    4.2443 H         1 <0>         0.0552
     57 H26        -1.2076   -1.1485    6.1323 H         1 <0>         0.3848
@<TRIPOS>BOND
     1    1    2 1
     2    1   32 1
     3    1   33 1
     4    1   34 1
     5    2   11 ar
     6    2    3 ar
     7    3    4 ar
     8    3   35 1
     9    4    5 ar
    10    4   36 1
    11    5   10 ar
    12    5    6 ar
    13    6    7 ar
    14    6   37 1
    15    7    8 ar
    16    7   38 1
    17    8    9 ar
    18    8   39 1
    19    9   10 ar
    20    9   40 1
    21   10   11 ar
    22   11   12 1
    23   12   13 1
    24   12   41 1
    25   12   42 1
    26   13   14 1
    27   13   27 1
    28   13   31 1
    29   14   15 1
    30   14   43 1
    31   14   44 1
    32   15   16 1
    33   15   17 1
    34   15   18 1
    35   16   45 1
    36   16   46 1
    37   16   47 1
    38   17   48 1
    39   17   49 1
    40   17   50 1
    41   18   23 ar
    42   18   19 ar
    43   19   20 ar
    44   19   51 1
    45   20   21 ar
    46   20   26 1
    47   21   22 ar
    48   21   52 1
    49   22   23 ar
    50   22   53 1
    51   23   24 1
    52   24   25 1
    53   25   54 1
    54   25   55 1
    55   25   56 1
    56   27   28 1
    57   27   29 1
    58   27   30 1
    59   31   57 1
@<TRIPOS>MOLECULE
CHEMBL392501
   55    56     0     0     0
SMALL
USER_CHARGES

@<TRIPOS>ATOM
      1 C1          0.8084   -0.9354   -2.6241 C.3       1 <0>        -0.1219
      2 C2          0.6791   -2.2820   -1.9601 C.ar      1 <0>        -0.0453
      3 C3          0.6388   -3.4297   -2.7324 C.ar      1 <0>        -0.1201
      4 C4          0.5206   -4.6654   -2.1312 C.ar      1 <0>        -0.0298
      5 C5          0.4419   -4.7568   -0.7399 C.ar      1 <0>        -0.0261
      6 C6          0.4836   -3.5949    0.0331 C.ar      1 <0>        -0.0327
      7 C7          0.6069   -2.3657   -0.5811 C.ar      1 <0>        -0.1120
      8 C8          0.3994   -3.6837    1.5351 C.3       1 <0>        -0.1223
      9 C9          1.7940   -3.9397    2.1099 C.3       1 <0>         0.1025
     10 C10         1.7084   -4.0298    3.6348 C.3       1 <0>        -0.1565
     11 C11         3.0752   -4.4214    4.2001 C.3       1 <0>        -0.0158
     12 C12         2.8850   -5.1784    5.5160 C.3       1 <0>        -0.1364
     13 C13         3.8042   -5.3176    3.1969 C.3       1 <0>        -0.1523
     14 C14         3.8907   -3.1787    4.4487 C.ar      1 <0>        -0.0395
     15 C15         3.2609   -1.9597    4.6109 C.ar      1 <0>        -0.1510
     16 C16         4.0097   -0.8180    4.8398 C.ar      1 <0>         0.0764
     17 C17         5.3906   -0.8960    4.9060 C.ar      1 <0>        -0.1294
     18 C18         6.0229   -2.1134    4.7442 C.ar      1 <0>        -0.1698
     19 C19         5.2734   -3.2592    4.5204 C.ar      1 <0>         0.1164
     20 O1          5.8940   -4.4589    4.3666 O.3       1 <0>        -0.2956
     21 C20         7.3204   -4.4671    4.4526 C.3       1 <0>         0.0164
     22 F1          3.3926    0.3733    4.9982 F         1 <0>        -0.1402
     23 C21         2.7258   -2.7911    1.7183 C.3       1 <0>         0.4623
     24 F2          2.1732   -1.5775    2.1414 F         1 <0>        -0.1736
     25 F3          3.9721   -2.9734    2.3271 F         1 <0>        -0.1496
     26 F4          2.8840   -2.7721    0.3284 F         1 <0>        -0.1668
     27 O2          2.3061   -5.1676    1.5882 O.3       1 <0>        -0.5225
     28 C22         0.3186   -6.0364   -0.1090 C.1       1 <0>         0.2649
     29 N1          0.2207   -7.0515    0.3915 N.1       1 <0>        -0.4221
     30 C23         0.4759   -5.9140   -2.9739 C.3       1 <0>        -0.1244
     31 H1          1.8634   -0.6849   -2.7351 H         1 <0>         0.0777
     32 H2          0.3374   -0.9680   -3.6066 H         1 <0>         0.0721
     33 H3          0.3180   -0.1794   -2.0109 H         1 <0>         0.0713
     34 H4          0.6998   -3.3575   -3.8082 H         1 <0>         0.1340
     35 H5          0.6434   -1.4664    0.0158 H         1 <0>         0.1308
     36 H6          0.0087   -2.7471    1.9330 H         1 <0>         0.1065
     37 H7         -0.2645   -4.5020    1.8140 H         1 <0>         0.0988
     38 H8          1.4113   -3.0625    4.0399 H         1 <0>         0.0970
     39 H9          0.9708   -4.7824    3.9135 H         1 <0>         0.0963
     40 H10         2.2223   -6.0284    5.3537 H         1 <0>         0.0608
     41 H11         3.8514   -5.5341    5.8735 H         1 <0>         0.0653
     42 H12         2.4459   -4.5119    6.2584 H         1 <0>         0.0556
     43 H13         4.0410   -4.7430    2.3015 H         1 <0>         0.0877
     44 H14         4.7260   -5.6891    3.6446 H         1 <0>         0.0707
     45 H15         3.1650   -6.1592    2.9301 H         1 <0>         0.0573
     46 H16         2.1839   -1.8974    4.5588 H         1 <0>         0.1434
     47 H17         5.9737   -0.0044    5.0839 H         1 <0>         0.1357
     48 H18         7.0999   -2.1738    4.7955 H         1 <0>         0.1367
     49 H19         7.7348   -3.8216    3.6783 H         1 <0>         0.0551
     50 H20         7.6274   -4.1021    5.4327 H         1 <0>         0.0544
     51 H21         7.6869   -5.4840    4.3124 H         1 <0>         0.1002
     52 H22         1.7645   -5.9406    1.7984 H         1 <0>         0.3844
     53 H23         1.4889   -6.2873   -3.1242 H         1 <0>         0.0805
     54 H24        -0.1196   -6.6733   -2.4670 H         1 <0>         0.0661
     55 H25         0.0261   -5.6845   -3.9399 H         1 <0>         0.0781
@<TRIPOS>BOND
     1    1    2 1
     2    1   31 1
     3    1   32 1
     4    1   33 1
     5    2    7 ar
     6    2    3 ar
     7    3    4 ar
     8    3   34 1
     9    4    5 ar
    10    4   30 1
    11    5    6 ar
    12    5   28 1
    13    6    7 ar
    14    6    8 1
    15    7   35 1
    16    8    9 1
    17    8   36 1
    18    8   37 1
    19    9   10 1
    20    9   23 1
    21    9   27 1
    22   10   11 1
    23   10   38 1
    24   10   39 1
    25   11   12 1
    26   11   13 1
    27   11   14 1
    28   12   40 1
    29   12   41 1
    30   12   42 1
    31   13   43 1
    32   13   44 1
    33   13   45 1
    34   14   19 ar
    35   14   15 ar
    36   15   16 ar
    37   15   46 1
    38   16   17 ar
    39   16   22 1
    40   17   18 ar
    41   17   47 1
    42   18   19 ar
    43   18   48 1
    44   19   20 1
    45   20   21 1
    46   21   49 1
    47   21   50 1
    48   21   51 1
    49   23   24 1
    50   23   25 1
    51   23   26 1
    52   27   52 1
    53   28   29 3
    54   30   53 1
    55   30   54 1
    56   30   55 1
@<TRIPOS>MOLECULE
CHEMBL392501__1
   55    56     0     0     0
SMALL
USER_CHARGES

@<TRIPOS>ATOM
      1 C1          0.9619    3.3476    4.1828 C.3       1 <0>        -0.1191
      2 C2          1.0384    2.2492    3.1538 C.ar      1 <0>        -0.0583
      3 C3          1.4057    2.5479    1.8535 C.ar      1 <0>        -0.1154
      4 C4          1.4777    1.5475    0.9067 C.ar      1 <0>        -0.0405
      5 C5          1.1793    0.2306    1.2631 C.ar      1 <0>        -0.0020
      6 C6          0.8099   -0.0638    2.5769 C.ar      1 <0>        -0.0489
      7 C7          0.7465    0.9460    3.5149 C.ar      1 <0>        -0.1027
      8 C8          0.4861   -1.4819    2.9707 C.3       1 <0>        -0.1182
      9 C9          1.7783   -2.2206    3.3246 C.3       1 <0>         0.1059
     10 C10         1.4647   -3.6919    3.6035 C.3       1 <0>        -0.1562
     11 C11         2.7289   -4.3982    4.0971 C.3       1 <0>        -0.0125
     12 C12         3.5608   -3.4270    4.9371 C.3       1 <0>        -0.1483
     13 C13         2.3380   -5.6057    4.9515 C.3       1 <0>        -0.1369
     14 C14         3.5400   -4.8612    2.9144 C.ar      1 <0>        -0.0531
     15 C15         3.0210   -4.7592    1.6379 C.ar      1 <0>        -0.1695
     16 C16         3.7660   -5.1839    0.5512 C.ar      1 <0>         0.0744
     17 C17         5.0318   -5.7120    0.7417 C.ar      1 <0>        -0.1276
     18 C18         5.5530   -5.8152    2.0167 C.ar      1 <0>        -0.1736
     19 C19         4.8099   -5.3846    3.1061 C.ar      1 <0>         0.1165
     20 O1          5.3239   -5.4804    4.3610 O.3       1 <0>        -0.3025
     21 C20         6.6376   -6.0294    4.4838 C.3       1 <0>         0.0214
     22 F1          3.2573   -5.0836   -0.6964 F         1 <0>        -0.1376
     23 C21         2.7594   -2.1212    2.1547 C.3       1 <0>         0.4521
     24 F2          3.0151   -0.7748    1.8737 F         1 <0>        -0.1615
     25 F3          3.9558   -2.7623    2.4937 F         1 <0>        -0.1528
     26 F4          2.2043   -2.7357    1.0271 F         1 <0>        -0.1582
     27 O2          2.3619   -1.6293    4.4872 O.3       1 <0>        -0.5193
     28 C22         1.2516   -0.8131    0.2852 C.1       1 <0>         0.2245
     29 N1          1.3089   -1.6410   -0.4905 N.1       1 <0>        -0.3829
     30 C23         1.8770    1.8749   -0.5090 C.3       1 <0>        -0.1233
     31 H1          1.9309    3.4575    4.6696 H         1 <0>         0.0761
     32 H2          0.6921    4.2842    3.6949 H         1 <0>         0.0701
     33 H3          0.2074    3.0955    4.9279 H         1 <0>         0.0699
     34 H4          1.6362    3.5668    1.5793 H         1 <0>         0.1325
     35 H5          0.4648    0.7191    4.5326 H         1 <0>         0.1313
     36 H6         -0.1777   -1.4763    3.8352 H         1 <0>         0.1095
     37 H7         -0.0050   -1.9869    2.1388 H         1 <0>         0.0943
     38 H8          0.6892   -3.7598    4.3665 H         1 <0>         0.0999
     39 H9          1.1160   -4.1691    2.6876 H         1 <0>         0.0925
     40 H10         2.9461   -3.0245    5.7423 H         1 <0>         0.0565
     41 H11         4.4157   -3.9536    5.3612 H         1 <0>         0.0603
     42 H12         3.9131   -2.6108    4.3064 H         1 <0>         0.0917
     43 H13         1.8221   -6.3383    4.3308 H         1 <0>         0.0531
     44 H14         3.2352   -6.0564    5.3758 H         1 <0>         0.0698
     45 H15         1.6781   -5.2827    5.7567 H         1 <0>         0.0598
     46 H16         2.0336   -4.3481    1.4880 H         1 <0>         0.1683
     47 H17         5.6116   -6.0437   -0.1069 H         1 <0>         0.1345
     48 H18         6.5402   -6.2275    2.1650 H         1 <0>         0.1359
     49 H19         6.6461   -7.0440    4.0856 H         1 <0>         0.0544
     50 H20         7.3423   -5.4137    3.9249 H         1 <0>         0.0548
     51 H21         6.9263   -6.0491    5.5347 H         1 <0>         0.1006
     52 H22         1.7942   -1.6567    5.2696 H         1 <0>         0.3888
     53 H23         2.9596    1.7961   -0.6087 H         1 <0>         0.0783
     54 H24         1.3972    1.1747   -1.1930 H         1 <0>         0.0658
     55 H25         1.5629    2.8906   -0.7495 H         1 <0>         0.0776
@<TRIPOS>BOND
     1    1    2 1
     2    1   31 1
     3    1   32 1
     4    1   33 1
     5    2    7 ar
     6    2    3 ar
     7    3    4 ar
     8    3   34 1
     9    4    5 ar
    10    4   30 1
    11    5    6 ar
    12    5   28 1
    13    6    7 ar
    14    6    8 1
    15    7   35 1
    16    8    9 1
    17    8   36 1
    18    8   37 1
    19    9   10 1
    20    9   23 1
    21    9   27 1
    22   10   11 1
    23   10   38 1
    24   10   39 1
    25   11   12 1
    26   11   13 1
    27   11   14 1
    28   12   40 1
    29   12   41 1
    30   12   42 1
    31   13   43 1
    32   13   44 1
    33   13   45 1
    34   14   19 ar
    35   14   15 ar
    36   15   16 ar
    37   15   46 1
    38   16   17 ar
    39   16   22 1
    40   17   18 ar
    41   17   47 1
    42   18   19 ar
    43   18   48 1
    44   19   20 1
    45   20   21 1
    46   21   49 1
    47   21   50 1
    48   21   51 1
    49   23   24 1
    50   23   25 1
    51   23   26 1
    52   27   52 1
    53   28   29 3
    54   30   53 1
    55   30   54 1
    56   30   55 1
@<TRIPOS>MOLECULE
CHEMBL392500
   55    57     0     0     0
SMALL
USER_CHARGES

@<TRIPOS>ATOM
      1 C1          1.0357   -0.5219    1.2573 C.3       1 <0>        -0.1525
      2 C2          0.0096   -0.7927    0.1552 C.3       1 <0>        -0.0150
      3 C3          0.3929   -2.0693   -0.5959 C.3       1 <0>        -0.1358
      4 C4         -1.3764   -0.9651    0.7799 C.3       1 <0>        -0.1536
      5 C5         -1.5187   -0.0196    1.9743 C.3       1 <0>         0.1058
      6 C6         -2.8623   -0.2667    2.6632 C.3       1 <0>        -0.1232
      7 C7         -3.0029    0.6654    3.8390 C.ar      1 <0>        -0.0395
      8 C8         -2.3773    0.3702    5.0113 C.ar      1 <0>        -0.1050
      9 C9         -2.4763    1.1962    6.1226 C.ar      1 <0>        -0.0455
     10 C10        -3.2269    2.3639    6.0703 C.ar      1 <0>        -0.0263
     11 C11        -3.9076    2.7027    4.8225 C.ar      1 <0>        -0.0141
     12 C12        -3.7736    1.8330    3.7124 C.ar      1 <0>        -0.0320
     13 C13        -4.4211    2.1545    2.5068 C.ar      1 <0>        -0.1102
     14 C14        -5.1593    3.2953    2.4228 C.ar      1 <0>        -0.1078
     15 C15        -5.2837    4.1517    3.5144 C.ar      1 <0>        -0.1007
     16 C16        -4.6803    3.8641    4.7024 C.ar      1 <0>        -0.1112
     17 C17        -3.3316    3.2175    7.2153 C.1       1 <0>         0.2547
     18 N1         -3.4148    3.8946    8.1237 N.1       1 <0>        -0.4109
     19 C18        -1.4537    1.4297    1.4881 C.3       1 <0>         0.4610
     20 F1         -2.4273    1.6357    0.5047 F         1 <0>        -0.1721
     21 F2         -1.6872    2.2933    2.5636 F         1 <0>        -0.1658
     22 F3         -0.1873    1.6851    0.9513 F         1 <0>        -0.1531
     23 O1         -0.4573   -0.2592    2.9006 O.3       1 <0>        -0.5214
     24 C19        -0.0134    0.3679   -0.8059 C.ar      1 <0>        -0.0608
     25 C20        -1.1986    0.7419   -1.4097 C.ar      1 <0>        -0.1372
     26 C21        -1.2203    1.8082   -2.2922 C.ar      1 <0>         0.0704
     27 C22        -0.0543    2.5012   -2.5715 C.ar      1 <0>        -0.1238
     28 C23         1.1319    2.1295   -1.9693 C.ar      1 <0>        -0.1766
     29 C24         1.1539    1.0646   -1.0803 C.ar      1 <0>         0.1270
     30 O2          2.3196    0.7013   -0.4826 O.3       1 <0>        -0.2938
     31 C25         3.4826    1.4635   -0.8120 C.3       1 <0>         0.0152
     32 F4         -2.3798    2.1728   -2.8819 F         1 <0>        -0.1404
     33 H1          2.0409   -0.5786    0.8398 H         1 <0>         0.0672
     34 H2          0.8699    0.4726    1.6717 H         1 <0>         0.0930
     35 H3          0.9271   -1.2667    2.0458 H         1 <0>         0.0573
     36 H4          0.3249   -2.9224    0.0792 H         1 <0>         0.0612
     37 H5         -0.2872   -2.2151   -1.4352 H         1 <0>         0.0548
     38 H6          1.4139   -1.9800   -0.9669 H         1 <0>         0.0632
     39 H7         -2.1406   -0.7316    0.0386 H         1 <0>         0.0935
     40 H8         -1.4982   -1.9950    1.1153 H         1 <0>         0.0982
     41 H9         -3.6719   -0.0846    1.9564 H         1 <0>         0.1000
     42 H10        -2.9082   -1.2989    3.0102 H         1 <0>         0.1085
     43 H11        -1.7876   -0.5321    5.0788 H         1 <0>         0.1339
     44 H12        -1.9657    0.9284    7.0358 H         1 <0>         0.1368
     45 H13        -4.3330    1.5004    1.6520 H         1 <0>         0.1319
     46 H14        -5.6559    3.5403    1.4955 H         1 <0>         0.1277
     47 H15        -5.8747    5.0509    3.4212 H         1 <0>         0.1279
     48 H16        -4.7857    4.5356    5.5417 H         1 <0>         0.1248
     49 H17        -0.4369   -1.1603    3.2509 H         1 <0>         0.3892
     50 H18        -2.1085    0.2018   -1.1933 H         1 <0>         0.1439
     51 H19        -0.0725    3.3324   -3.2607 H         1 <0>         0.1352
     52 H20         2.0411    2.6699   -2.1875 H         1 <0>         0.1362
     53 H21         3.6696    1.3962   -1.8837 H         1 <0>         0.0541
     54 H22         3.3242    2.5059   -0.5355 H         1 <0>         0.0551
     55 H23         4.3411    1.0697   -0.2679 H         1 <0>         0.1004
@<TRIPOS>BOND
     1    1    2 1
     2    1   33 1
     3    1   34 1
     4    1   35 1
     5    2    3 1
     6    2    4 1
     7    2   24 1
     8    3   36 1
     9    3   37 1
    10    3   38 1
    11    4    5 1
    12    4   39 1
    13    4   40 1
    14    5    6 1
    15    5   19 1
    16    5   23 1
    17    6    7 1
    18    6   41 1
    19    6   42 1
    20    7   12 ar
    21    7    8 ar
    22    8    9 ar
    23    8   43 1
    24    9   10 ar
    25    9   44 1
    26   10   11 ar
    27   10   17 1
    28   11   16 ar
    29   11   12 ar
    30   12   13 ar
    31   13   14 ar
    32   13   45 1
    33   14   15 ar
    34   14   46 1
    35   15   16 ar
    36   15   47 1
    37   16   48 1
    38   17   18 3
    39   19   20 1
    40   19   21 1
    41   19   22 1
    42   23   49 1
    43   24   29 ar
    44   24   25 ar
    45   25   26 ar
    46   25   50 1
    47   26   27 ar
    48   26   32 1
    49   27   28 ar
    50   27   51 1
    51   28   29 ar
    52   28   52 1
    53   29   30 1
    54   30   31 1
    55   31   53 1
    56   31   54 1
    57   31   55 1
@<TRIPOS>MOLECULE
CHEMBL392500__1
   55    57     0     0     0
SMALL
USER_CHARGES

@<TRIPOS>ATOM
      1 C1          0.1895    0.4791   -1.5640 C.3       1 <0>        -0.1374
      2 C2         -0.1032    0.6014   -0.0672 C.3       1 <0>        -0.0129
      3 C3         -0.1630    2.0800    0.3216 C.3       1 <0>        -0.1575
      4 C4         -1.4454   -0.0630    0.2459 C.3       1 <0>        -0.1576
      5 C5         -2.0818    0.6195    1.4584 C.3       1 <0>         0.1040
      6 C6         -3.4712    0.0284    1.7054 C.3       1 <0>        -0.1219
      7 C7         -4.0980    0.7006    2.8997 C.ar      1 <0>        -0.0422
      8 C8         -3.9850    0.1299    4.1303 C.ar      1 <0>        -0.1085
      9 C9         -4.5447    0.7096    5.2607 C.ar      1 <0>        -0.0438
     10 C10        -5.2461    1.9051    5.1680 C.ar      1 <0>        -0.0249
     11 C11        -5.3806    2.5374    3.8575 C.ar      1 <0>        -0.0129
     12 C12        -4.7881    1.9128    2.7326 C.ar      1 <0>        -0.0296
     13 C13        -4.9085    2.5174    1.4694 C.ar      1 <0>        -0.0974
     14 C14        -5.5851    3.6925    1.3474 C.ar      1 <0>        -0.1111
     15 C15        -6.1611    4.3075    2.4567 C.ar      1 <0>        -0.1004
     16 C16        -6.0749    3.7422    3.6941 C.ar      1 <0>        -0.1102
     17 C17        -5.8254    2.5050    6.3321 C.1       1 <0>         0.2543
     18 N1         -6.2850    2.9809    7.2556 N.1       1 <0>        -0.4096
     19 C18        -1.2041    0.3916    2.6908 C.3       1 <0>         0.4611
     20 F1          0.0819    0.8844    2.4450 F         1 <0>        -0.1506
     21 F2         -1.7580    1.0601    3.7878 F         1 <0>        -0.1660
     22 F3         -1.1338   -0.9782    2.9663 F         1 <0>        -0.1723
     23 O1         -2.1981    2.0217    1.2092 O.3       1 <0>        -0.5184
     24 C19         0.9894   -0.0801    0.7157 C.ar      1 <0>        -0.0479
     25 C20         0.7139   -1.2311    1.4287 C.ar      1 <0>        -0.1585
     26 C21         1.7174   -1.8576    2.1475 C.ar      1 <0>         0.0742
     27 C22         2.9983   -1.3317    2.1535 C.ar      1 <0>        -0.1271
     28 C23         3.2765   -0.1812    1.4416 C.ar      1 <0>        -0.1715
     29 C24         2.2732    0.4446    0.7161 C.ar      1 <0>         0.1172
     30 O2          2.5469    1.5738    0.0105 O.3       1 <0>        -0.3016
     31 C25         3.8907    2.0577    0.0563 C.3       1 <0>         0.0210
     32 F4          1.4466   -2.9830    2.8443 F         1 <0>        -0.1398
     33 H1          1.1000    1.0290   -1.8022 H         1 <0>         0.0696
     34 H2          0.3209   -0.5712   -1.8239 H         1 <0>         0.0533
     35 H3         -0.6438    0.8925   -2.1321 H         1 <0>         0.0596
     36 H4         -0.9851    2.5619   -0.2076 H         1 <0>         0.0580
     37 H5         -0.3224    2.1668    1.3964 H         1 <0>         0.0956
     38 H6          0.7757    2.5645    0.0531 H         1 <0>         0.0607
     39 H7         -2.1078    0.0332   -0.6144 H         1 <0>         0.0988
     40 H8         -1.2858   -1.1187    0.4653 H         1 <0>         0.0960
     41 H9         -4.0964    0.1908    0.8274 H         1 <0>         0.1066
     42 H10        -3.3825   -1.0412    1.8955 H         1 <0>         0.1030
     43 H11        -3.4450   -0.8001    4.2300 H         1 <0>         0.1321
     44 H12        -4.4343    0.2267    6.2204 H         1 <0>         0.1374
     45 H13        -4.4666    2.0525    0.6005 H         1 <0>         0.1257
     46 H14        -5.6763    4.1551    0.3758 H         1 <0>         0.1278
     47 H15        -6.6919    5.2398    2.3329 H         1 <0>         0.1274
     48 H16        -6.5272    4.2283    4.5459 H         1 <0>         0.1245
     49 H17        -2.7421    2.2408    0.4403 H         1 <0>         0.3849
     50 H18        -0.2849   -1.6420    1.4254 H         1 <0>         0.1557
     51 H19         3.7801   -1.8211    2.7153 H         1 <0>         0.1355
     52 H20         4.2756    0.2290    1.4467 H         1 <0>         0.1365
     53 H21         4.1603    2.2843    1.0878 H         1 <0>         0.0554
     54 H22         4.5646    1.2963   -0.3365 H         1 <0>         0.0549
     55 H23         3.9722    2.9615   -0.5475 H         1 <0>         0.1010
@<TRIPOS>BOND
     1    1    2 1
     2    1   33 1
     3    1   34 1
     4    1   35 1
     5    2    3 1
     6    2    4 1
     7    2   24 1
     8    3   36 1
     9    3   37 1
    10    3   38 1
    11    4    5 1
    12    4   39 1
    13    4   40 1
    14    5    6 1
    15    5   19 1
    16    5   23 1
    17    6    7 1
    18    6   41 1
    19    6   42 1
    20    7   12 ar
    21    7    8 ar
    22    8    9 ar
    23    8   43 1
    24    9   10 ar
    25    9   44 1
    26   10   11 ar
    27   10   17 1
    28   11   16 ar
    29   11   12 ar
    30   12   13 ar
    31   13   14 ar
    32   13   45 1
    33   14   15 ar
    34   14   46 1
    35   15   16 ar
    36   15   47 1
    37   16   48 1
    38   17   18 3
    39   19   20 1
    40   19   21 1
    41   19   22 1
    42   23   49 1
    43   24   29 ar
    44   24   25 ar
    45   25   26 ar
    46   25   50 1
    47   26   27 ar
    48   26   32 1
    49   27   28 ar
    50   27   51 1
    51   28   29 ar
    52   28   52 1
    53   29   30 1
    54   30   31 1
    55   31   53 1
    56   31   54 1
    57   31   55 1
@<TRIPOS>MOLECULE
CHEMBL197100
   64    67     0     0     0
SMALL
USER_CHARGES

@<TRIPOS>ATOM
      1 C1         -0.0552    1.5112    0.6282 C.3       1 <0>        -0.1416
      2 C2         -0.1339    0.1676   -0.0995 C.3       1 <0>        -0.0033
      3 C3          0.8857   -0.8000    0.5045 C.3       1 <0>        -0.1641
      4 C4         -1.5411   -0.4134    0.0531 C.3       1 <0>        -0.1452
      5 C5         -2.0902   -0.0627    1.4375 C.3       1 <0>         0.1396
      6 C6         -1.1063   -0.5332    2.5106 C.3       1 <0>        -0.0858
      7 C7         -1.7257   -0.3550    3.8728 C.ar      1 <0>        -0.0809
      8 C8         -1.6396    0.8651    4.5169 C.ar      1 <0>        -0.1105
      9 C9         -2.2078    1.0285    5.7665 C.ar      1 <0>        -0.1243
     10 C10        -2.8624   -0.0279    6.3717 C.ar      1 <0>        -0.1210
     11 C11        -2.9492   -1.2477    5.7271 C.ar      1 <0>        -0.1143
     12 C12        -2.3848   -1.4099    4.4757 C.ar      1 <0>        -0.1000
     13 C13        -3.4383   -0.7567    1.6421 C.3       1 <0>         0.0911
     14 N1         -4.0966   -0.2046    2.8287 N.pl3     1 <0>        -0.7147
     15 C14        -5.2731   -0.7758    3.2999 C.ar      1 <0>         0.2695
     16 C15        -5.8222   -1.8762    2.6468 C.ar      1 <0>        -0.2137
     17 C16        -6.9781   -2.4442    3.1025 C.ar      1 <0>         0.0206
     18 C17        -7.6159   -1.9204    4.2305 C.ar      1 <0>        -0.2677
     19 C18        -7.0626   -0.8137    4.8865 C.ar      1 <0>        -0.0490
     20 C19        -5.8988   -0.2498    4.4290 C.ar      1 <0>        -0.1754
     21 C20        -7.9816   -0.5080    6.0417 C.3       1 <0>         0.0898
     22 O1         -9.0375   -1.4714    5.9925 O.3       1 <0>        -0.3205
     23 C21        -8.8422   -2.2971    4.9505 C.2       1 <0>         0.5246
     24 O2         -9.5723   -3.2198    4.6469 O.2       1 <0>        -0.4627
     25 O3         -2.2629    1.3523    1.5370 O.3       1 <0>        -0.5427
     26 C22         0.1702    0.3697   -1.5616 C.ar      1 <0>        -0.0722
     27 C23        -0.7741    0.0425   -2.5157 C.ar      1 <0>        -0.1250
     28 C24        -0.4952    0.2284   -3.8588 C.ar      1 <0>         0.0644
     29 C25         0.7304    0.7420   -4.2482 C.ar      1 <0>        -0.1186
     30 C26         1.6763    1.0699   -3.2965 C.ar      1 <0>        -0.1780
     31 C27         1.3960    0.8895   -1.9498 C.ar      1 <0>         0.1253
     32 O4          2.3239    1.2171   -1.0119 O.3       1 <0>        -0.3022
     33 C28         3.5642    1.7472   -1.4838 C.3       1 <0>         0.0207
     34 F1         -1.4195   -0.0919   -4.7907 F         1 <0>        -0.1404
     35 H1          0.9347    1.9445    0.4851 H         1 <0>         0.0558
     36 H2         -0.8095    2.1873    0.2254 H         1 <0>         0.0573
     37 H3         -0.2348    1.3590    1.6925 H         1 <0>         0.0829
     38 H4          0.6224   -1.0040    1.5424 H         1 <0>         0.0754
     39 H5          0.8818   -1.7317   -0.0612 H         1 <0>         0.0518
     40 H6          1.8792   -0.3537    0.4627 H         1 <0>         0.0710
     41 H7         -2.1926    0.0065   -0.7132 H         1 <0>         0.0794
     42 H8         -1.5008   -1.4969   -0.0580 H         1 <0>         0.0806
     43 H9         -0.8725   -1.5860    2.3526 H         1 <0>         0.0882
     44 H10        -0.1912    0.0556    2.4477 H         1 <0>         0.1076
     45 H11        -1.1282    1.6905    4.0441 H         1 <0>         0.1236
     46 H12        -2.1399    1.9815    6.2701 H         1 <0>         0.1193
     47 H13        -3.3056    0.0996    7.3482 H         1 <0>         0.1179
     48 H14        -3.4604   -2.0732    6.2001 H         1 <0>         0.1164
     49 H15        -2.4559   -2.3618    3.9705 H         1 <0>         0.1135
     50 H16        -4.0680   -0.5924    0.7677 H         1 <0>         0.0660
     51 H17        -3.2792   -1.8263    1.7794 H         1 <0>         0.0757
     52 H18        -3.7115    0.5595    3.2857 H         1 <0>         0.4134
     53 H19        -5.3317   -2.2827    1.7747 H         1 <0>         0.1306
     54 H20        -7.3990   -3.2973    2.5912 H         1 <0>         0.1319
     55 H21        -5.4714    0.6009    4.9390 H         1 <0>         0.1291
     56 H22        -7.4395   -0.5964    6.9832 H         1 <0>         0.1143
     57 H23        -8.3890    0.4977    5.9383 H         1 <0>         0.1143
     58 H24        -2.8753    1.7206    0.8855 H         1 <0>         0.3761
     59 H25        -1.7302   -0.3588   -2.2135 H         1 <0>         0.1457
     60 H26         0.9470    0.8859   -5.2964 H         1 <0>         0.1372
     61 H27         2.6323    1.4701   -3.6004 H         1 <0>         0.1380
     62 H28         4.0483    1.0169   -2.1321 H         1 <0>         0.0562
     63 H29         3.3780    2.6635   -2.0440 H         1 <0>         0.0564
     64 H30         4.2123    1.9657   -0.6351 H         1 <0>         0.1024
@<TRIPOS>BOND
     1    1    2 1
     2    1   35 1
     3    1   36 1
     4    1   37 1
     5    2    3 1
     6    2    4 1
     7    2   26 1
     8    3   38 1
     9    3   39 1
    10    3   40 1
    11    4    5 1
    12    4   41 1
    13    4   42 1
    14    5    6 1
    15    5   13 1
    16    5   25 1
    17    6    7 1
    18    6   43 1
    19    6   44 1
    20    7   12 ar
    21    7    8 ar
    22    8    9 ar
    23    8   45 1
    24    9   10 ar
    25    9   46 1
    26   10   11 ar
    27   10   47 1
    28   11   12 ar
    29   11   48 1
    30   12   49 1
    31   13   14 1
    32   13   50 1
    33   13   51 1
    34   14   15 1
    35   14   52 1
    36   15   20 ar
    37   15   16 ar
    38   16   17 ar
    39   16   53 1
    40   17   18 ar
    41   17   54 1
    42   18   23 1
    43   18   19 ar
    44   19   20 ar
    45   19   21 1
    46   20   55 1
    47   21   22 1
    48   21   56 1
    49   21   57 1
    50   22   23 1
    51   23   24 2
    52   25   58 1
    53   26   31 ar
    54   26   27 ar
    55   27   28 ar
    56   27   59 1
    57   28   29 ar
    58   28   34 1
    59   29   30 ar
    60   29   60 1
    61   30   31 ar
    62   30   61 1
    63   31   32 1
    64   32   33 1
    65   33   62 1
    66   33   63 1
    67   33   64 1
@<TRIPOS>MOLECULE
CHEMBL197100__1
   64    67     0     0     0
SMALL
USER_CHARGES

@<TRIPOS>ATOM
      1 C1         -0.2342   -1.5978    0.2993 C.3       1 <0>        -0.1576
      2 C2         -0.7234   -0.9534   -0.9993 C.3       1 <0>        -0.0096
      3 C3         -1.9062   -1.7520   -1.5509 C.3       1 <0>        -0.1685
      4 C4         -1.1649    0.4847   -0.7202 C.3       1 <0>        -0.1316
      5 C5         -2.0328    0.5164    0.5394 C.3       1 <0>         0.1413
      6 C6         -2.6530    1.9062    0.6965 C.3       1 <0>        -0.0732
      7 C7         -1.5644    2.9480    0.6700 C.ar      1 <0>        -0.0771
      8 C8         -0.8748    3.2568    1.8277 C.ar      1 <0>        -0.0960
      9 C9          0.1237    4.2124    1.8034 C.ar      1 <0>        -0.1206
     10 C10         0.4330    4.8590    0.6213 C.ar      1 <0>        -0.1213
     11 C11        -0.2560    4.5496   -0.5365 C.ar      1 <0>        -0.1207
     12 C12        -1.2516    3.5909   -0.5131 C.ar      1 <0>        -0.1199
     13 C13        -3.1447   -0.5276    0.4191 C.3       1 <0>         0.0756
     14 N1         -4.2155   -0.2122    1.3678 N.pl3     1 <0>        -0.7319
     15 C14        -5.3404   -1.0255    1.4419 C.ar      1 <0>         0.2610
     16 C15        -5.4460   -2.1431    0.6179 C.ar      1 <0>        -0.2092
     17 C16        -6.5477   -2.9482    0.6837 C.ar      1 <0>         0.0210
     18 C17        -7.5767   -2.6516    1.5819 C.ar      1 <0>        -0.2628
     19 C18        -7.4692   -1.5273    2.4100 C.ar      1 <0>        -0.0493
     20 C19        -6.3588   -0.7247    2.3449 C.ar      1 <0>        -0.1796
     21 C20        -8.7260   -1.4972    3.2419 C.3       1 <0>         0.0895
     22 O1         -9.5089   -2.6262    2.8442 O.3       1 <0>        -0.3193
     23 C21        -8.8592   -3.3058    1.8841 C.2       1 <0>         0.5247
     24 O2         -9.2712   -4.3134    1.3440 O.2       1 <0>        -0.4601
     25 O3         -1.2256    0.2232    1.6816 O.3       1 <0>        -0.5552
     26 C22         0.3945   -0.9486   -2.0099 C.ar      1 <0>        -0.0713
     27 C23         0.8587    0.2481   -2.5213 C.ar      1 <0>        -0.1183
     28 C24         1.8859    0.2529   -3.4493 C.ar      1 <0>         0.0655
     29 C25         2.4493   -0.9412   -3.8667 C.ar      1 <0>        -0.1173
     30 C26         1.9871   -2.1390   -3.3570 C.ar      1 <0>        -0.1778
     31 C27         0.9617   -2.1449   -2.4227 C.ar      1 <0>         0.1229
     32 O4          0.5097   -3.3227   -1.9161 O.3       1 <0>        -0.3039
     33 C28         1.1401   -4.5158   -2.3864 C.3       1 <0>         0.0206
     34 F1          2.3389    1.4237   -3.9486 F         1 <0>        -0.1395
     35 H1          0.3294   -2.5014    0.0667 H         1 <0>         0.0717
     36 H2          0.4072   -0.8969    0.8336 H         1 <0>         0.0752
     37 H3         -1.0907   -1.8543    0.9228 H         1 <0>         0.0565
     38 H4         -2.5659   -2.0371   -0.7314 H         1 <0>         0.0732
     39 H5         -2.4570   -1.1393   -2.2645 H         1 <0>         0.0577
     40 H6         -1.5381   -2.6486   -2.0498 H         1 <0>         0.0726
     41 H7         -0.2861    1.1122   -0.5718 H         1 <0>         0.0900
     42 H8         -1.7399    0.8591   -1.5671 H         1 <0>         0.0769
     43 H9         -3.3497    2.0878   -0.1218 H         1 <0>         0.0870
     44 H10        -3.1855    1.9612    1.6460 H         1 <0>         0.0781
     45 H11        -1.1165    2.7516    2.7511 H         1 <0>         0.1224
     46 H12         0.6619    4.4541    2.7079 H         1 <0>         0.1197
     47 H13         1.2126    5.6061    0.6025 H         1 <0>         0.1194
     48 H14        -0.0146    5.0550   -1.4599 H         1 <0>         0.1204
     49 H15        -1.7873    3.3465   -1.4184 H         1 <0>         0.1182
     50 H16        -3.5436   -0.5183   -0.5952 H         1 <0>         0.0863
     51 H17        -2.7412   -1.5154    0.6418 H         1 <0>         0.0875
     52 H18        -4.1395    0.5642    1.9443 H         1 <0>         0.4056
     53 H19        -4.6526   -2.3745   -0.0773 H         1 <0>         0.1328
     54 H20        -6.6237   -3.8133    0.0416 H         1 <0>         0.1348
     55 H21        -6.2759    0.1394    2.9875 H         1 <0>         0.1332
     56 H22        -8.4749   -1.5715    4.3000 H         1 <0>         0.1161
     57 H23        -9.2768   -0.5759    3.0525 H         1 <0>         0.1162
     58 H24        -1.1812   -0.7176    1.9007 H         1 <0>         0.3797
     59 H25         0.4197    1.1801   -2.1972 H         1 <0>         0.1459
     60 H26         3.2501   -0.9360   -4.5912 H         1 <0>         0.1376
     61 H27         2.4264   -3.0702   -3.6830 H         1 <0>         0.1384
     62 H28         1.0121   -4.5930   -3.4661 H         1 <0>         0.0568
     63 H29         2.2032   -4.4832   -2.1480 H         1 <0>         0.0568
     64 H30         0.6859   -5.3812   -1.9038 H         1 <0>         0.1028
@<TRIPOS>BOND
     1    1    2 1
     2    1   35 1
     3    1   36 1
     4    1   37 1
     5    2    3 1
     6    2    4 1
     7    2   26 1
     8    3   38 1
     9    3   39 1
    10    3   40 1
    11    4    5 1
    12    4   41 1
    13    4   42 1
    14    5    6 1
    15    5   13 1
    16    5   25 1
    17    6    7 1
    18    6   43 1
    19    6   44 1
    20    7   12 ar
    21    7    8 ar
    22    8    9 ar
    23    8   45 1
    24    9   10 ar
    25    9   46 1
    26   10   11 ar
    27   10   47 1
    28   11   12 ar
    29   11   48 1
    30   12   49 1
    31   13   14 1
    32   13   50 1
    33   13   51 1
    34   14   15 1
    35   14   52 1
    36   15   20 ar
    37   15   16 ar
    38   16   17 ar
    39   16   53 1
    40   17   18 ar
    41   17   54 1
    42   18   23 1
    43   18   19 ar
    44   19   20 ar
    45   19   21 1
    46   20   55 1
    47   21   22 1
    48   21   56 1
    49   21   57 1
    50   22   23 1
    51   23   24 2
    52   25   58 1
    53   26   31 ar
    54   26   27 ar
    55   27   28 ar
    56   27   59 1
    57   28   29 ar
    58   28   34 1
    59   29   30 ar
    60   29   60 1
    61   30   31 ar
    62   30   61 1
    63   31   32 1
    64   32   33 1
    65   33   62 1
    66   33   63 1
    67   33   64 1
@<TRIPOS>MOLECULE
CHEMBL190225
   67    70     0     0     0
SMALL
USER_CHARGES

@<TRIPOS>ATOM
      1 C1         -1.8253    2.6946    0.6116 C.3       1 <0>        -0.0745
      2 C2         -1.7872    1.2155    0.3256 C.ar      1 <0>        -0.1523
      3 C3         -2.0789    0.7455   -0.9473 C.ar      1 <0>         0.2845
      4 C4         -2.0429   -0.6189   -1.2076 C.ar      1 <0>        -0.2569
      5 C5         -1.7171   -1.5075   -0.2009 C.ar      1 <0>        -0.0726
      6 C6         -1.4268   -1.0432    1.0672 C.ar      1 <0>        -0.2164
      7 C7         -1.4549    0.3209    1.3329 C.ar      1 <0>         0.1908
      8 N1         -1.1547    0.7901    2.6136 N.pl3     1 <0>        -0.6513
      9 C8          0.2267    1.1293    2.9643 C.3       1 <0>         0.1867
     10 C9          0.4839    2.5798    2.6465 C.ar      1 <0>        -0.0945
     11 C10         0.9511    2.9412    1.3967 C.ar      1 <0>        -0.0808
     12 C11         1.1871    4.2717    1.1052 C.ar      1 <0>        -0.1242
     13 C12         0.9554    5.2408    2.0634 C.ar      1 <0>        -0.1256
     14 C13         0.4874    4.8795    3.3129 C.ar      1 <0>        -0.1311
     15 C14         0.2474    3.5494    3.6030 C.ar      1 <0>        -0.1095
     16 C15        -2.2211    0.9430    3.6064 C.3       1 <0>         0.1909
     17 C16        -2.3703   -0.3387    4.3848 C.ar      1 <0>        -0.1293
     18 C17        -3.2354   -1.3206    3.9383 C.ar      1 <0>        -0.0562
     19 C18        -3.3741   -2.4964    4.6499 C.ar      1 <0>        -0.1911
     20 C19        -2.6440   -2.6918    5.8136 C.ar      1 <0>         0.1175
     21 C20        -1.7762   -1.7050    6.2593 C.ar      1 <0>        -0.1556
     22 C21        -1.6377   -0.5331    5.5413 C.ar      1 <0>        -0.0763
     23 O1         -2.7789   -3.8473    6.5157 O.3       1 <0>        -0.2591
     24 C22        -3.6351   -4.7888    6.0370 C.ar      1 <0>         0.0244
     25 C23        -3.1775   -5.7599    5.1583 C.ar      1 <0>        -0.0819
     26 C24        -4.0473   -6.7163    4.6721 C.ar      1 <0>        -0.1474
     27 C25        -5.3783   -6.7058    5.0623 C.ar      1 <0>         0.1454
     28 C26        -5.8359   -5.7349    5.9409 C.ar      1 <0>        -0.2063
     29 C27        -4.9650   -4.7819    6.4317 C.ar      1 <0>        -0.0811
     30 O2         -6.2347   -7.6471    4.5832 O.3       1 <0>        -0.2780
     31 C28        -7.5911   -7.5763    5.0272 C.3       1 <0>        -0.0086
     32 C29        -8.3850   -8.6912    4.3965 C.2       1 <0>         0.5019
     33 O3         -7.8398   -9.4739    3.6371 O.co2     1 <0>        -0.6703
     34 O4         -9.5725   -8.8105    4.6456 O.co2     1 <0>        -0.6891
     35 N2         -2.4086    1.6430   -1.9654 N.2       1 <0>        -1.0933
     36 S1         -2.7565    1.0813   -3.4839 S.o2      1 <0>         2.5202
     37 O5         -1.5488    0.4832   -3.9347 O.2       1 <0>        -1.0336
     38 O6         -3.9339    0.3025   -3.3215 O.2       1 <0>        -1.0309
     39 C30        -3.1197    2.5672   -4.4588 C.3       1 <0>        -0.6382
     40 H1         -0.8431    3.1270    0.4208 H         1 <0>         0.0556
     41 H2         -2.5634    3.1706   -0.0339 H         1 <0>         0.0566
     42 H3         -2.0969    2.8561    1.6548 H         1 <0>         0.0358
     43 H4         -2.2701   -0.9853   -2.1979 H         1 <0>         0.0967
     44 H5         -1.6899   -2.5676   -0.4058 H         1 <0>         0.0973
     45 H6         -1.1729   -1.7404    1.8520 H         1 <0>         0.0985
     46 H7          0.3840    0.9572    4.0291 H         1 <0>         0.0654
     47 H8          0.9111    0.5047    2.3903 H         1 <0>         0.0690
     48 H9          1.1321    2.1841    0.6482 H         1 <0>         0.1211
     49 H10         1.5527    4.5540    0.1290 H         1 <0>         0.1158
     50 H11         1.1405    6.2803    1.8359 H         1 <0>         0.1115
     51 H12         0.3068    5.6366    4.0616 H         1 <0>         0.1117
     52 H13        -0.1218    3.2674    4.5780 H         1 <0>         0.1134
     53 H14        -1.9689    1.7551    4.2884 H         1 <0>         0.0642
     54 H15        -3.1588    1.1719    3.1000 H         1 <0>         0.0701
     55 H16        -3.8034   -1.1680    3.0325 H         1 <0>         0.1245
     56 H17        -4.0505   -3.2627    4.3010 H         1 <0>         0.1259
     57 H18        -1.2071   -1.8545    7.1649 H         1 <0>         0.1229
     58 H19        -0.9596    0.2337    5.8857 H         1 <0>         0.1210
     59 H20        -2.1412   -5.7679    4.8542 H         1 <0>         0.1325
     60 H21        -3.6912   -7.4721    3.9877 H         1 <0>         0.1378
     61 H22        -6.8723   -5.7269    6.2447 H         1 <0>         0.1345
     62 H23        -5.3202   -4.0288    7.1196 H         1 <0>         0.1272
     63 H24        -7.6239   -7.6756    6.1122 H         1 <0>         0.0600
     64 H25        -8.0187   -6.6166    4.7371 H         1 <0>         0.0616
     65 H26        -2.2486    3.2223   -4.4610 H         1 <0>         0.1125
     66 H27        -3.3611    2.2803   -5.4822 H         1 <0>         0.0974
     67 H28        -3.9678    3.0920   -4.0189 H         1 <0>         0.1133
@<TRIPOS>BOND
     1    1    2 1
     2    1   40 1
     3    1   41 1
     4    1   42 1
     5    2    7 ar
     6    2    3 ar
     7    3    4 ar
     8    3   35 1
     9    4    5 ar
    10    4   43 1
    11    5    6 ar
    12    5   44 1
    13    6    7 ar
    14    6   45 1
    15    7    8 1
    16    8    9 1
    17    8   16 1
    18    9   10 1
    19    9   46 1
    20    9   47 1
    21   10   15 ar
    22   10   11 ar
    23   11   12 ar
    24   11   48 1
    25   12   13 ar
    26   12   49 1
    27   13   14 ar
    28   13   50 1
    29   14   15 ar
    30   14   51 1
    31   15   52 1
    32   16   17 1
    33   16   53 1
    34   16   54 1
    35   17   22 ar
    36   17   18 ar
    37   18   19 ar
    38   18   55 1
    39   19   20 ar
    40   19   56 1
    41   20   21 ar
    42   20   23 1
    43   21   22 ar
    44   21   57 1
    45   22   58 1
    46   23   24 1
    47   24   29 ar
    48   24   25 ar
    49   25   26 ar
    50   25   59 1
    51   26   27 ar
    52   26   60 1
    53   27   28 ar
    54   27   30 1
    55   28   29 ar
    56   28   61 1
    57   29   62 1
    58   30   31 1
    59   31   32 1
    60   31   63 1
    61   31   64 1
    62   32   33 2
    63   32   34 1
    64   35   36 1
    65   36   37 2
    66   36   38 2
    67   36   39 1
    68   39   65 1
    69   39   66 1
    70   39   67 1
@<TRIPOS>MOLECULE
CHEMBL190225__1
   68    71     0     0     0
SMALL
USER_CHARGES

@<TRIPOS>ATOM
      1 C1         -0.7132    1.3158   -0.3493 C.3       1 <0>        -0.1194
      2 C2         -0.5487   -0.1793   -0.2560 C.ar      1 <0>        -0.1049
      3 C3         -0.4932   -0.9464   -1.4113 C.ar      1 <0>         0.1469
      4 C4         -0.3415   -2.3247   -1.3217 C.ar      1 <0>        -0.1735
      5 C5         -0.2459   -2.9317   -0.0841 C.ar      1 <0>        -0.0896
      6 C6         -0.3012   -2.1712    1.0677 C.ar      1 <0>        -0.1271
      7 C7         -0.4466   -0.7914    0.9850 C.ar      1 <0>         0.1891
      8 N1         -0.4958   -0.0225    2.1500 N.pl3     1 <0>        -0.6584
      9 C8          0.7394    0.5168    2.7243 C.3       1 <0>         0.1831
     10 C9          1.0133    1.8780    2.1386 C.ar      1 <0>        -0.1008
     11 C10         1.7655    1.9953    0.9848 C.ar      1 <0>        -0.0982
     12 C11         2.0168    3.2439    0.4474 C.ar      1 <0>        -0.1263
     13 C12         1.5154    4.3752    1.0637 C.ar      1 <0>        -0.1195
     14 C13         0.7624    4.2578    2.2170 C.ar      1 <0>        -0.1227
     15 C14         0.5076    3.0089    2.7519 C.ar      1 <0>        -0.1056
     16 C15        -1.7824    0.2448    2.7975 C.3       1 <0>         0.1897
     17 C16        -2.0740   -0.8399    3.8023 C.ar      1 <0>        -0.1431
     18 C17        -2.7614   -1.9747    3.4129 C.ar      1 <0>        -0.0636
     19 C18        -3.0300   -2.9704    4.3319 C.ar      1 <0>        -0.1916
     20 C19        -2.6089   -2.8313    5.6467 C.ar      1 <0>         0.1278
     21 C20        -1.9188   -1.6917    6.0347 C.ar      1 <0>        -0.1519
     22 C21        -1.6486   -0.7011    5.1106 C.ar      1 <0>        -0.0714
     23 O1         -2.8721   -3.8091    6.5527 O.3       1 <0>        -0.2542
     24 C22        -3.4449   -4.9577    6.1040 C.ar      1 <0>         0.0189
     25 C23        -2.6796   -5.8957    5.4264 C.ar      1 <0>        -0.0882
     26 C24        -3.2615   -7.0624    4.9706 C.ar      1 <0>        -0.1472
     27 C25        -4.6110   -7.2963    5.1903 C.ar      1 <0>         0.1479
     28 C26        -5.3762   -6.3585    5.8678 C.ar      1 <0>        -0.2054
     29 C27        -4.7932   -5.1943    6.3287 C.ar      1 <0>        -0.0759
     30 O2         -5.1839   -8.4448    4.7411 O.3       1 <0>        -0.2765
     31 C28        -6.5778   -8.6198    5.0025 C.3       1 <0>        -0.0094
     32 C29        -7.0335   -9.9395    4.4352 C.2       1 <0>         0.5011
     33 O3         -6.2382  -10.6631    3.8603 O.co2     1 <0>        -0.6698
     34 O4         -8.1974  -10.2836    4.5510 O.co2     1 <0>        -0.6857
     35 N2         -0.5902   -0.3336   -2.6627 N.pl3     1 <0>        -1.0520
     36 S1         -1.3789   -1.0999   -3.9009 S.o2      1 <0>         2.6075
     37 O5         -1.3841   -0.1583   -4.9652 O.2       1 <0>        -0.9549
     38 O6         -0.7110   -2.3464   -4.0398 O.2       1 <0>        -0.9466
     39 C30        -3.0664   -1.3601   -3.2885 C.3       1 <0>        -0.6675
     40 H1          0.2684    1.7868   -0.4013 H         1 <0>         0.0828
     41 H2         -1.2829    1.5634   -1.2450 H         1 <0>         0.0544
     42 H3         -1.2441    1.6786    0.5308 H         1 <0>         0.0729
     43 H4         -0.2986   -2.9222   -2.2203 H         1 <0>         0.1581
     44 H5         -0.1280   -4.0032   -0.0172 H         1 <0>         0.1305
     45 H6         -0.2265   -2.6488    2.0335 H         1 <0>         0.1258
     46 H7          0.6304    0.6017    3.8056 H         1 <0>         0.0766
     47 H8          1.5691   -0.1515    2.4942 H         1 <0>         0.0725
     48 H9          2.1572    1.1115    0.5033 H         1 <0>         0.1178
     49 H10         2.6051    3.3356   -0.4536 H         1 <0>         0.1186
     50 H11         1.7123    5.3508    0.6443 H         1 <0>         0.1176
     51 H12         0.3710    5.1417    2.6986 H         1 <0>         0.1184
     52 H13        -0.0839    2.9169    3.6509 H         1 <0>         0.1183
     53 H14        -1.7405    1.2085    3.3051 H         1 <0>         0.0736
     54 H15        -2.5707    0.2644    2.0451 H         1 <0>         0.0700
     55 H16        -3.0889   -2.0824    2.3894 H         1 <0>         0.1192
     56 H17        -3.5676   -3.8562    4.0273 H         1 <0>         0.1292
     57 H18        -1.5902   -1.5808    7.0576 H         1 <0>         0.1278
     58 H19        -1.1083    0.1843    5.4112 H         1 <0>         0.1232
     59 H20        -1.6290   -5.7134    5.2551 H         1 <0>         0.1309
     60 H21        -2.6659   -7.7925    4.4428 H         1 <0>         0.1384
     61 H22        -6.4269   -6.5407    6.0388 H         1 <0>         0.1368
     62 H23        -5.3879   -4.4663    6.8604 H         1 <0>         0.1290
     63 H24        -6.7500   -8.6081    6.0787 H         1 <0>         0.0618
     64 H25        -7.1394   -7.8104    4.5359 H         1 <0>         0.0613
     65 H26        -0.1956    0.5408   -2.8064 H         1 <0>         0.4252
     66 H27        -3.5210   -0.3971   -3.0557 H         1 <0>         0.1306
     67 H28        -3.6566   -1.8650   -4.0532 H         1 <0>         0.1345
     68 H29        -3.0357   -1.9744   -2.3887 H         1 <0>         0.1330
@<TRIPOS>BOND
     1    1    2 1
     2    1   40 1
     3    1   41 1
     4    1   42 1
     5    2    7 ar
     6    2    3 ar
     7    3    4 ar
     8    3   35 1
     9    4    5 ar
    10    4   43 1
    11    5    6 ar
    12    5   44 1
    13    6    7 ar
    14    6   45 1
    15    7    8 1
    16    8    9 1
    17    8   16 1
    18    9   10 1
    19    9   46 1
    20    9   47 1
    21   10   15 ar
    22   10   11 ar
    23   11   12 ar
    24   11   48 1
    25   12   13 ar
    26   12   49 1
    27   13   14 ar
    28   13   50 1
    29   14   15 ar
    30   14   51 1
    31   15   52 1
    32   16   17 1
    33   16   53 1
    34   16   54 1
    35   17   22 ar
    36   17   18 ar
    37   18   19 ar
    38   18   55 1
    39   19   20 ar
    40   19   56 1
    41   20   21 ar
    42   20   23 1
    43   21   22 ar
    44   21   57 1
    45   22   58 1
    46   23   24 1
    47   24   29 ar
    48   24   25 ar
    49   25   26 ar
    50   25   59 1
    51   26   27 ar
    52   26   60 1
    53   27   28 ar
    54   27   30 1
    55   28   29 ar
    56   28   61 1
    57   29   62 1
    58   30   31 1
    59   31   32 1
    60   31   63 1
    61   31   64 1
    62   32   33 2
    63   32   34 1
    64   35   36 1
    65   35   65 1
    66   36   37 2
    67   36   38 2
    68   36   39 1
    69   39   66 1
    70   39   67 1
    71   39   68 1
@<TRIPOS>MOLECULE
CHEMBL1215622
   41    43     0     0     0
SMALL
USER_CHARGES

@<TRIPOS>ATOM
      1 C1          0.3551    1.4766    0.2705 C.3       1 <0>        -0.1311
      2 C2          0.1843   -0.0140    0.1287 C.2       1 <0>         0.2078
      3 C3         -1.0500   -0.5390    0.0903 C.2       1 <0>        -0.1383
      4 C4         -1.2685   -2.0179   -0.0587 C.3       1 <0>         0.0776
      5 C5         -0.0062   -2.7757    0.2398 C.2       1 <0>        -0.1570
      6 C6          1.1897   -2.1614    0.2725 C.2       1 <0>         0.1462
      7 N1          1.2929   -0.8174    0.0348 N.pl3     1 <0>        -0.6290
      8 C7          2.4308   -2.9634    0.5685 C.3       1 <0>         0.1473
      9 N2          3.0746   -3.3491   -0.6897 N.pl3     1 <0>        -0.3232
     10 C8          4.3520   -3.1105   -1.0401 C.2       1 <0>         0.1582
     11 N3          4.5151   -3.6190   -2.2370 N.2       1 <0>        -0.3003
     12 N4          3.3961   -4.1427   -2.6027 N.2       1 <0>        -0.0673
     13 N5          2.5251   -3.9863   -1.6678 N.2       1 <0>        -0.0632
     14 C9         -0.0771   -4.1647    0.4924 C.2       1 <0>         0.5070
     15 O1         -0.1693   -4.9477   -0.4346 O.2       1 <0>        -0.4515
     16 O2         -0.0425   -4.6224    1.7615 O.3       1 <0>        -0.3548
     17 C10        -0.1184   -6.0378    1.9430 C.3       1 <0>         0.0298
     18 C11        -1.7034   -2.3152   -1.4707 C.ar      1 <0>        -0.0847
     19 C12        -0.8769   -1.9919   -2.5307 C.ar      1 <0>        -0.0481
     20 C13        -1.2744   -2.2640   -3.8258 C.ar      1 <0>        -0.1431
     21 C14        -2.5015   -2.8608   -4.0626 C.ar      1 <0>         0.1205
     22 C15        -3.3288   -3.1849   -3.0013 C.ar      1 <0>        -0.1443
     23 C16        -2.9270   -2.9166   -1.7050 C.ar      1 <0>         0.0037
     24 Cl1        -3.9612   -3.3281   -0.3729 Cl        1 <0>        -0.0514
     25 F1         -2.8909   -3.1262   -5.3287 F         1 <0>        -0.1297
     26 C17        -2.1839    0.3294    0.1943 C.1       1 <0>         0.2608
     27 N6         -3.0834    1.0183    0.2767 N.1       1 <0>        -0.4103
     28 H1          1.4172    1.7215    0.2787 H         1 <0>         0.0832
     29 H2         -0.1271    1.9789   -0.5681 H         1 <0>         0.0940
     30 H3         -0.1013    1.8075    1.2034 H         1 <0>         0.0967
     31 H4         -2.0500   -2.3364    0.6312 H         1 <0>         0.1070
     32 H5          2.1518   -0.4306   -0.1966 H         1 <0>         0.4225
     33 H6          3.1204   -2.3608    1.1597 H         1 <0>         0.1427
     34 H7          2.1599   -3.8591    1.1275 H         1 <0>         0.1311
     35 H8          5.0977   -2.5987   -0.4498 H         1 <0>         0.2370
     36 H9          0.7209   -6.5146    1.4367 H         1 <0>         0.0612
     37 H10        -0.0804   -6.2702    3.0072 H         1 <0>         0.1054
     38 H11        -1.0538   -6.4082    1.5234 H         1 <0>         0.0651
     39 H12         0.0800   -1.5261   -2.3464 H         1 <0>         0.1310
     40 H13        -0.6284   -2.0108   -4.6534 H         1 <0>         0.1430
     41 H14        -4.2861   -3.6500   -3.1849 H         1 <0>         0.1486
@<TRIPOS>BOND
     1    1    2 1
     2    1   28 1
     3    1   29 1
     4    1   30 1
     5    2    7 1
     6    2    3 2
     7    3    4 1
     8    3   26 1
     9    4    5 1
    10    4   18 1
    11    4   31 1
    12    5    6 2
    13    5   14 1
    14    6    7 1
    15    6    8 1
    16    7   32 1
    17    8    9 1
    18    8   33 1
    19    8   34 1
    20    9   13 1
    21    9   10 1
    22   10   11 2
    23   10   35 1
    24   11   12 1
    25   12   13 2
    26   14   15 2
    27   14   16 1
    28   16   17 1
    29   17   36 1
    30   17   37 1
    31   17   38 1
    32   18   23 ar
    33   18   19 ar
    34   19   20 ar
    35   19   39 1
    36   20   21 ar
    37   20   40 1
    38   21   22 ar
    39   21   25 1
    40   22   23 ar
    41   22   41 1
    42   23   24 1
    43   26   27 3
@<TRIPOS>MOLECULE
CHEMBL1215622__1
   41    43     0     0     0
SMALL
USER_CHARGES

@<TRIPOS>ATOM
      1 C1          0.4150    1.4784    0.1354 C.3       1 <0>        -0.1313
      2 C2          0.2133   -0.0134    0.0649 C.2       1 <0>         0.2071
      3 C3         -1.0285   -0.5181    0.1281 C.2       1 <0>        -0.1371
      4 C4         -1.2768   -1.9986    0.0706 C.3       1 <0>         0.0764
      5 C5         -0.0653   -2.7224   -0.4446 C.2       1 <0>        -0.1576
      6 C6          1.1414   -2.1301   -0.4848 C.2       1 <0>         0.1475
      7 N1          1.3013   -0.8390   -0.0689 N.pl3     1 <0>        -0.6289
      8 C7          2.3310   -2.8981   -1.0004 C.3       1 <0>         0.1471
      9 N2          2.5383   -2.5846   -2.4164 N.pl3     1 <0>        -0.3209
     10 C8          3.6743   -2.1291   -2.9764 C.2       1 <0>         0.1597
     11 N3          3.4302   -1.9814   -4.2557 N.2       1 <0>        -0.3006
     12 N4          2.2081   -2.3282   -4.4702 N.2       1 <0>        -0.0668
     13 N5          1.6678   -2.6985   -3.3619 N.2       1 <0>        -0.0659
     14 C9         -0.1966   -4.0552   -0.8967 C.2       1 <0>         0.5096
     15 O1         -0.6483   -4.2805   -2.0040 O.2       1 <0>        -0.4586
     16 O2          0.1791   -5.0780   -0.1003 O.3       1 <0>        -0.3505
     17 C10         0.0185   -6.3988   -0.6215 C.3       1 <0>         0.0295
     18 C11        -1.6039   -2.5008    1.4533 C.ar      1 <0>        -0.0889
     19 C12        -0.6896   -2.3463    2.4786 C.ar      1 <0>        -0.0549
     20 C13        -0.9883   -2.8063    3.7469 C.ar      1 <0>        -0.1455
     21 C14        -2.2041   -3.4226    3.9915 C.ar      1 <0>         0.1189
     22 C15        -3.1198   -3.5769    2.9650 C.ar      1 <0>        -0.1439
     23 C16        -2.8213   -3.1111    1.6971 C.ar      1 <0>        -0.0005
     24 Cl1        -3.9714   -3.2987    0.4103 Cl        1 <0>        -0.0450
     25 F1         -2.4962   -3.8733    5.2312 F         1 <0>        -0.1296
     26 C17        -2.1414    0.3742    0.2536 C.1       1 <0>         0.2602
     27 N6         -3.0243    1.0820    0.3532 N.1       1 <0>        -0.4100
     28 H1          1.4788    1.7050    0.0646 H         1 <0>         0.0829
     29 H2         -0.1139    1.9560   -0.6894 H         1 <0>         0.0948
     30 H3          0.0259    1.8533    1.0821 H         1 <0>         0.0953
     31 H4         -2.1206   -2.1955   -0.5908 H         1 <0>         0.1097
     32 H5          2.1888   -0.5058    0.1367 H         1 <0>         0.4238
     33 H6          3.2183   -2.6180   -0.4326 H         1 <0>         0.1411
     34 H7          2.1500   -3.9671   -0.8877 H         1 <0>         0.1316
     35 H8          4.6059   -1.9243   -2.4698 H         1 <0>         0.2372
     36 H9          0.6086   -6.5044   -1.5319 H         1 <0>         0.0614
     37 H10         0.3576   -7.1247    0.1175 H         1 <0>         0.1055
     38 H11        -1.0331   -6.5748   -0.8477 H         1 <0>         0.0649
     39 H12         0.2588   -1.8660    2.2882 H         1 <0>         0.1382
     40 H13        -0.2734   -2.6855    4.5474 H         1 <0>         0.1449
     41 H14        -4.0681   -4.0577    3.1546 H         1 <0>         0.1492
@<TRIPOS>BOND
     1    1    2 1
     2    1   28 1
     3    1   29 1
     4    1   30 1
     5    2    7 1
     6    2    3 2
     7    3    4 1
     8    3   26 1
     9    4    5 1
    10    4   18 1
    11    4   31 1
    12    5    6 2
    13    5   14 1
    14    6    7 1
    15    6    8 1
    16    7   32 1
    17    8    9 1
    18    8   33 1
    19    8   34 1
    20    9   13 1
    21    9   10 1
    22   10   11 2
    23   10   35 1
    24   11   12 1
    25   12   13 2
    26   14   15 2
    27   14   16 1
    28   16   17 1
    29   17   36 1
    30   17   37 1
    31   17   38 1
    32   18   23 ar
    33   18   19 ar
    34   19   20 ar
    35   19   39 1
    36   20   21 ar
    37   20   40 1
    38   21   22 ar
    39   21   25 1
    40   22   23 ar
    41   22   41 1
    42   23   24 1
    43   26   27 3
@<TRIPOS>MOLECULE
CHEMBL101914
   50    54     0     0     0
SMALL
USER_CHARGES

@<TRIPOS>ATOM
      1 C1          0.0022    1.3974   -0.0076 C.3       1 <0>        -0.1307
      2 C2          0.0001   -0.1076    0.0320 C.2       1 <0>        -0.0561
      3 C3         -0.1022   -0.7136   -1.1541 C.2       1 <0>        -0.1768
      4 C4         -0.0887   -2.2113   -1.2681 C.3       1 <0>         0.2129
      5 N1          0.7261   -2.7589   -0.1781 N.pl3     1 <0>        -0.7354
      6 C5          0.5648   -2.2349    1.1057 C.ar      1 <0>         0.2206
      7 C6          0.1120   -0.9034    1.2624 C.ar      1 <0>        -0.0828
      8 C7         -0.2768   -0.4919    2.5372 C.ar      1 <0>        -0.0545
      9 C8          0.0804   -1.2828    3.6350 C.ar      1 <0>        -0.0826
     10 C9          0.7110   -2.5132    3.4671 C.ar      1 <0>        -0.0604
     11 C10         0.9384   -2.9948    2.1972 C.ar      1 <0>        -0.1771
     12 C11        -0.2069   -0.8116    5.0115 C.ar      1 <0>        -0.1256
     13 C12         0.1916   -1.5503    6.1201 C.ar      1 <0>        -0.0742
     14 C13        -0.0896   -1.0896    7.3921 C.ar      1 <0>        -0.1566
     15 C14        -0.7636    0.1062    7.5641 C.ar      1 <0>        -0.0788
     16 C15        -1.1617    0.8463    6.4686 C.ar      1 <0>        -0.1535
     17 C16        -0.8846    0.3961    5.1839 C.ar      1 <0>         0.1539
     18 O1         -1.2661    1.1213    4.1233 O.3       1 <0>        -0.3113
     19 C17        -1.0668    0.7615    2.7719 C.3       1 <0>         0.1925
     20 C18        -2.4236    0.6032    2.1354 C.ar      1 <0>        -0.0965
     21 C19        -3.2900   -0.3739    2.5888 C.ar      1 <0>        -0.0903
     22 C20        -4.5345   -0.5192    2.0049 C.ar      1 <0>        -0.1203
     23 C21        -4.9128    0.3129    0.9679 C.ar      1 <0>        -0.1113
     24 C22        -4.0467    1.2906    0.5150 C.ar      1 <0>        -0.1206
     25 C23        -2.8039    1.4386    1.1018 C.ar      1 <0>        -0.1031
     26 C24         0.5168   -2.6186   -2.6124 C.3       1 <0>        -0.1526
     27 C25        -1.5151   -2.7519   -1.1668 C.3       1 <0>        -0.1557
     28 H1          0.1958    1.7869    0.9918 H         1 <0>         0.0658
     29 H2          0.7803    1.7419   -0.6889 H         1 <0>         0.0729
     30 H3         -0.9680    1.7531   -0.3546 H         1 <0>         0.0802
     31 H4         -0.1933   -0.1068   -2.0415 H         1 <0>         0.1231
     32 H5          1.3632   -3.4712   -0.3460 H         1 <0>         0.4024
     33 H6          1.0197   -3.0891    4.3257 H         1 <0>         0.1307
     34 H7          1.4047   -3.9591    2.0527 H         1 <0>         0.1287
     35 H8          0.7225   -2.4819    5.9950 H         1 <0>         0.1265
     36 H9          0.2159   -1.6644    8.2537 H         1 <0>         0.1259
     37 H10        -0.9763    0.4638    8.5606 H         1 <0>         0.1301
     38 H11        -1.6913    1.7776    6.6046 H         1 <0>         0.1319
     39 H12        -0.5584    1.6140    2.3128 H         1 <0>         0.1119
     40 H13        -2.9944   -1.0240    3.3990 H         1 <0>         0.1155
     41 H14        -5.2111   -1.2830    2.3587 H         1 <0>         0.1221
     42 H15        -5.8848    0.1990    0.5112 H         1 <0>         0.1226
     43 H16        -4.3421    1.9404   -0.2954 H         1 <0>         0.1244
     44 H17        -2.1287    2.2049    0.7505 H         1 <0>         0.1284
     45 H18         1.5371   -2.2412   -2.6806 H         1 <0>         0.0632
     46 H19         0.5253   -3.7056   -2.6926 H         1 <0>         0.0636
     47 H20        -0.0806   -2.1992   -3.4220 H         1 <0>         0.0747
     48 H21        -2.1199   -2.3348   -1.9720 H         1 <0>         0.0657
     49 H22        -1.4986   -3.8386   -1.2502 H         1 <0>         0.0589
     50 H23        -1.9440   -2.4678   -0.2058 H         1 <0>         0.0577
@<TRIPOS>BOND
     1    1    2 1
     2    1   28 1
     3    1   29 1
     4    1   30 1
     5    2    7 1
     6    2    3 2
     7    3    4 1
     8    3   31 1
     9    4    5 1
    10    4   26 1
    11    4   27 1
    12    5    6 1
    13    5   32 1
    14    6   11 ar
    15    6    7 ar
    16    7    8 ar
    17    8   19 1
    18    8    9 ar
    19    9   10 ar
    20    9   12 1
    21   10   11 ar
    22   10   33 1
    23   11   34 1
    24   12   17 ar
    25   12   13 ar
    26   13   14 ar
    27   13   35 1
    28   14   15 ar
    29   14   36 1
    30   15   16 ar
    31   15   37 1
    32   16   17 ar
    33   16   38 1
    34   17   18 1
    35   18   19 1
    36   19   20 1
    37   19   39 1
    38   20   25 ar
    39   20   21 ar
    40   21   22 ar
    41   21   40 1
    42   22   23 ar
    43   22   41 1
    44   23   24 ar
    45   23   42 1
    46   24   25 ar
    47   24   43 1
    48   25   44 1
    49   26   45 1
    50   26   46 1
    51   26   47 1
    52   27   48 1
    53   27   49 1
    54   27   50 1
@<TRIPOS>MOLECULE
CHEMBL101914__1
   50    54     0     0     0
SMALL
USER_CHARGES

@<TRIPOS>ATOM
      1 C1         -0.4204    1.9214    0.0469 C.3       1 <0>        -0.1246
      2 C2         -0.3378    0.4343   -0.1746 C.2       1 <0>        -0.0627
      3 C3         -0.5680    0.0211   -1.4241 C.2       1 <0>        -0.1751
      4 C4         -0.5055   -1.4318   -1.7951 C.3       1 <0>         0.2116
      5 N1          0.4444   -2.1134   -0.9109 N.pl3     1 <0>        -0.7346
      6 C5          0.4403   -1.8092    0.4499 C.ar      1 <0>         0.2232
      7 C6         -0.0179   -0.5402    0.8803 C.ar      1 <0>        -0.0894
      8 C7         -0.1847   -0.3365    2.2430 C.ar      1 <0>        -0.0499
      9 C8          0.2806   -1.3055    3.1460 C.ar      1 <0>        -0.0845
     10 C9          0.8954   -2.4692    2.6999 C.ar      1 <0>        -0.0546
     11 C10         0.9669   -2.7203    1.3469 C.ar      1 <0>        -0.1816
     12 C11         0.0612   -1.0938    4.5970 C.ar      1 <0>        -0.0940
     13 C12         0.7646   -1.8097    5.5561 C.ar      1 <0>        -0.0846
     14 C13         0.5266   -1.5716    6.8971 C.ar      1 <0>        -0.1411
     15 C14        -0.4046   -0.6243    7.2842 C.ar      1 <0>        -0.0923
     16 C15        -1.1089    0.0946    6.3351 C.ar      1 <0>        -0.1367
     17 C16        -0.8805   -0.1366    4.9921 C.ar      1 <0>         0.1221
     18 O1         -1.5580    0.5362    4.0275 O.3       1 <0>        -0.3051
     19 C17        -0.8245    0.8864    2.8440 C.3       1 <0>         0.1802
     20 C18         0.2427    1.8736    3.2412 C.ar      1 <0>        -0.1195
     21 C19         1.4768    1.8448    2.6192 C.ar      1 <0>        -0.0964
     22 C20         2.4557    2.7503    2.9835 C.ar      1 <0>        -0.1233
     23 C21         2.2002    3.6850    3.9694 C.ar      1 <0>        -0.1114
     24 C22         0.9657    3.7144    4.5907 C.ar      1 <0>        -0.1210
     25 C23        -0.0146    2.8116    4.2234 C.ar      1 <0>        -0.0936
     26 C24        -1.8913   -2.0628   -1.6454 C.3       1 <0>        -0.1581
     27 C25        -0.0406   -1.5704   -3.2469 C.3       1 <0>        -0.1528
     28 H1          0.5091    2.2745    0.4935 H         1 <0>         0.0745
     29 H2         -0.5782    2.4228   -0.9080 H         1 <0>         0.0700
     30 H3         -1.2521    2.1435    0.7157 H         1 <0>         0.0693
     31 H4         -0.8023    0.7583   -2.1781 H         1 <0>         0.1247
     32 H5          1.0682   -2.7687   -1.2675 H         1 <0>         0.4029
     33 H6          1.3122   -3.1706    3.4066 H         1 <0>         0.1299
     34 H7          1.4328   -3.6259    0.9846 H         1 <0>         0.1281
     35 H8          1.4958   -2.5470    5.2604 H         1 <0>         0.1260
     36 H9          1.0714   -2.1277    7.6460 H         1 <0>         0.1255
     37 H10        -0.5837   -0.4447    8.3337 H         1 <0>         0.1287
     38 H11        -1.8341    0.8324    6.6446 H         1 <0>         0.1310
     39 H12        -1.5306    1.3361    2.1583 H         1 <0>         0.1340
     40 H13         1.6765    1.1145    1.8489 H         1 <0>         0.1248
     41 H14         3.4202    2.7274    2.4981 H         1 <0>         0.1220
     42 H15         2.9652    4.3920    4.2545 H         1 <0>         0.1222
     43 H16         0.7662    4.4444    5.3612 H         1 <0>         0.1238
     44 H17        -0.9803    2.8370    4.7063 H         1 <0>         0.1262
     45 H18        -2.5958   -1.5523   -2.3021 H         1 <0>         0.0668
     46 H19        -1.8414   -3.1175   -1.9157 H         1 <0>         0.0602
     47 H20        -2.2240   -1.9679   -0.6118 H         1 <0>         0.0576
     48 H21         0.9485   -1.1256   -3.3556 H         1 <0>         0.0632
     49 H22         0.0042   -2.6260   -3.5148 H         1 <0>         0.0637
     50 H23        -0.7436   -1.0583   -3.9039 H         1 <0>         0.0749
@<TRIPOS>BOND
     1    1    2 1
     2    1   28 1
     3    1   29 1
     4    1   30 1
     5    2    7 1
     6    2    3 2
     7    3    4 1
     8    3   31 1
     9    4    5 1
    10    4   26 1
    11    4   27 1
    12    5    6 1
    13    5   32 1
    14    6   11 ar
    15    6    7 ar
    16    7    8 ar
    17    8   19 1
    18    8    9 ar
    19    9   10 ar
    20    9   12 1
    21   10   11 ar
    22   10   33 1
    23   11   34 1
    24   12   17 ar
    25   12   13 ar
    26   13   14 ar
    27   13   35 1
    28   14   15 ar
    29   14   36 1
    30   15   16 ar
    31   15   37 1
    32   16   17 ar
    33   16   38 1
    34   17   18 1
    35   18   19 1
    36   19   20 1
    37   19   39 1
    38   20   25 ar
    39   20   21 ar
    40   21   22 ar
    41   21   40 1
    42   22   23 ar
    43   22   41 1
    44   23   24 ar
    45   23   42 1
    46   24   25 ar
    47   24   43 1
    48   25   44 1
    49   26   45 1
    50   26   46 1
    51   26   47 1
    52   27   48 1
    53   27   49 1
    54   27   50 1
@<TRIPOS>MOLECULE
CHEMBL1215621
   42    44     0     0     0
SMALL
USER_CHARGES

@<TRIPOS>ATOM
      1 C1          0.3573    1.4763    0.2711 C.3       1 <0>        -0.1311
      2 C2          0.1854   -0.0141    0.1290 C.2       1 <0>         0.2088
      3 C3         -1.0493   -0.5381    0.0894 C.2       1 <0>        -0.1429
      4 C4         -1.2690   -2.0167   -0.0601 C.3       1 <0>         0.0793
      5 C5         -0.0076   -2.7757    0.2396 C.2       1 <0>        -0.1697
      6 C6          1.1888   -2.1624    0.2735 C.2       1 <0>         0.1581
      7 N1          1.2934   -0.8185    0.0361 N.pl3     1 <0>        -0.6285
      8 C7          2.4289   -2.9655    0.5706 C.3       1 <0>         0.1606
      9 N2          3.0737   -3.3515   -0.6870 N.pl3     1 <0>        -0.3923
     10 C8          4.3487   -3.1184   -1.0434 C.2       1 <0>         0.2530
     11 N3          4.5345   -3.6196   -2.2376 N.2       1 <0>        -0.5372
     12 C9          3.4062   -4.1781   -2.6739 C.2       1 <0>         0.1993
     13 N4          2.4842   -4.0441   -1.7571 N.2       1 <0>        -0.2850
     14 C10        -0.0799   -4.1646    0.4919 C.2       1 <0>         0.5133
     15 O1         -0.1726   -4.9474   -0.4352 O.2       1 <0>        -0.4552
     16 O2         -0.0461   -4.6226    1.7610 O.3       1 <0>        -0.3567
     17 C11        -0.1234   -6.0379    1.9422 C.3       1 <0>         0.0316
     18 C12        -1.7027   -2.3135   -1.4725 C.ar      1 <0>        -0.0810
     19 C13        -0.8749   -1.9908   -2.5316 C.ar      1 <0>        -0.0459
     20 C14        -1.2714   -2.2624   -3.8272 C.ar      1 <0>        -0.1452
     21 C15        -2.4987   -2.8581   -4.0653 C.ar      1 <0>         0.1179
     22 C16        -3.3274   -3.1816   -3.0048 C.ar      1 <0>        -0.1453
     23 C17        -2.9266   -2.9139   -1.7082 C.ar      1 <0>         0.0030
     24 Cl1        -3.9625   -3.3247   -0.3771 Cl        1 <0>        -0.0521
     25 F1         -2.8871   -3.1230   -5.3318 F         1 <0>        -0.1309
     26 C18        -2.1826    0.3312    0.1923 C.1       1 <0>         0.2620
     27 N5         -3.0816    1.0209    0.2739 N.1       1 <0>        -0.4139
     28 H1          1.4196    1.7203    0.2804 H         1 <0>         0.0828
     29 H2         -0.1236    1.9792   -0.5679 H         1 <0>         0.0932
     30 H3         -0.0997    1.8075    1.2036 H         1 <0>         0.0958
     31 H4         -2.0513   -2.3347    0.6290 H         1 <0>         0.1036
     32 H5          2.1528   -0.4323   -0.1944 H         1 <0>         0.4218
     33 H6          3.1184   -2.3636    1.1626 H         1 <0>         0.1287
     34 H7          2.1567   -3.8610    1.1292 H         1 <0>         0.1159
     35 H8          5.0901   -2.6061   -0.4482 H         1 <0>         0.2199
     36 H9          3.2759   -4.6662   -3.6284 H         1 <0>         0.2170
     37 H10        -1.0590   -6.4074    1.5223 H         1 <0>         0.0630
     38 H11         0.7156   -6.5154    1.4361 H         1 <0>         0.0600
     39 H12        -0.0859   -6.2706    3.0064 H         1 <0>         0.1035
     40 H13         0.0822   -1.5259   -2.3464 H         1 <0>         0.1320
     41 H14        -0.6243   -2.0097   -4.6542 H         1 <0>         0.1415
     42 H15        -4.2848   -3.6459   -3.1894 H         1 <0>         0.1476
@<TRIPOS>BOND
     1    1    2 1
     2    1   28 1
     3    1   29 1
     4    1   30 1
     5    2    7 1
     6    2    3 2
     7    3    4 1
     8    3   26 1
     9    4    5 1
    10    4   18 1
    11    4   31 1
    12    5    6 2
    13    5   14 1
    14    6    7 1
    15    6    8 1
    16    7   32 1
    17    8    9 1
    18    8   33 1
    19    8   34 1
    20    9   13 1
    21    9   10 1
    22   10   11 2
    23   10   35 1
    24   11   12 1
    25   12   13 2
    26   12   36 1
    27   14   15 2
    28   14   16 1
    29   16   17 1
    30   17   37 1
    31   17   38 1
    32   17   39 1
    33   18   23 ar
    34   18   19 ar
    35   19   20 ar
    36   19   40 1
    37   20   21 ar
    38   20   41 1
    39   21   22 ar
    40   21   25 1
    41   22   23 ar
    42   22   42 1
    43   23   24 1
    44   26   27 3
@<TRIPOS>MOLECULE
CHEMBL1215621__1
   42    44     0     0     0
SMALL
USER_CHARGES

@<TRIPOS>ATOM
      1 C1          0.4186    1.4780    0.1344 C.3       1 <0>        -0.1310
      2 C2          0.2150   -0.0135    0.0644 C.2       1 <0>         0.2088
      3 C3         -1.0274   -0.5167    0.1272 C.2       1 <0>        -0.1413
      4 C4         -1.2776   -1.9969    0.0702 C.3       1 <0>         0.0790
      5 C5         -0.0668   -2.7224   -0.4442 C.2       1 <0>        -0.1707
      6 C6          1.1407   -2.1316   -0.4840 C.2       1 <0>         0.1591
      7 N1          1.3021   -0.8406   -0.0685 N.pl3     1 <0>        -0.6281
      8 C7          2.3296   -2.9014   -0.9988 C.3       1 <0>         0.1605
      9 N2          2.5382   -2.5884   -2.4147 N.pl3     1 <0>        -0.3905
     10 C8          3.6697   -2.1350   -2.9814 C.2       1 <0>         0.2546
     11 N3          3.4490   -1.9810   -4.2618 N.2       1 <0>        -0.5380
     12 C9          2.1939   -2.3243   -4.5486 C.2       1 <0>         0.2008
     13 N4          1.5975   -2.7082   -3.4507 N.2       1 <0>        -0.2890
     14 C10        -0.1995   -4.0552   -0.8958 C.2       1 <0>         0.5163
     15 O1         -0.6519   -4.2804   -2.0028 O.2       1 <0>        -0.4628
     16 O2          0.1755   -5.0781   -0.0992 O.3       1 <0>        -0.3524
     17 C11         0.0135   -6.3990   -0.6199 C.3       1 <0>         0.0312
     18 C12        -1.6059   -2.4981    1.4530 C.ar      1 <0>        -0.0870
     19 C13        -0.6919   -2.3443    2.4787 C.ar      1 <0>        -0.0550
     20 C14        -0.9917   -2.8034    3.7470 C.ar      1 <0>        -0.1456
     21 C15        -2.2085   -3.4181    3.9913 C.ar      1 <0>         0.1174
     22 C16        -3.1238   -3.5717    2.9644 C.ar      1 <0>        -0.1443
     23 C17        -2.8242   -3.1067    1.6965 C.ar      1 <0>        -0.0013
     24 Cl1        -3.9739   -3.2934    0.4093 Cl        1 <0>        -0.0464
     25 F1         -2.5017   -3.8679    5.2310 F         1 <0>        -0.1301
     26 C18        -2.1393    0.3771    0.2519 C.1       1 <0>         0.2617
     27 N5         -3.0213    1.0861    0.3507 N.1       1 <0>        -0.4142
     28 H1          1.4827    1.7032    0.0640 H         1 <0>         0.0824
     29 H2         -0.1093    1.9559   -0.6908 H         1 <0>         0.0938
     30 H3          0.0296    1.8537    1.0808 H         1 <0>         0.0942
     31 H4         -2.1213   -2.1929   -0.5915 H         1 <0>         0.1062
     32 H5          2.1899   -0.5084    0.1374 H         1 <0>         0.4225
     33 H6          3.2169   -2.6224   -0.4305 H         1 <0>         0.1272
     34 H7          2.1471   -3.9701   -0.8860 H         1 <0>         0.1163
     35 H8          4.5987   -1.9326   -2.4692 H         1 <0>         0.2201
     36 H9          1.7437   -2.2943   -5.5298 H         1 <0>         0.2181
     37 H10        -1.0384   -6.5740   -0.8457 H         1 <0>         0.0628
     38 H11         0.6031   -6.5055   -1.5304 H         1 <0>         0.0602
     39 H12         0.3521   -7.1250    0.1193 H         1 <0>         0.1036
     40 H13         0.2572   -1.8653    2.2885 H         1 <0>         0.1379
     41 H14        -0.2771   -2.6833    4.5478 H         1 <0>         0.1445
     42 H15        -4.0728   -4.0512    3.1538 H         1 <0>         0.1486
@<TRIPOS>BOND
     1    1    2 1
     2    1   28 1
     3    1   29 1
     4    1   30 1
     5    2    7 1
     6    2    3 2
     7    3    4 1
     8    3   26 1
     9    4    5 1
    10    4   18 1
    11    4   31 1
    12    5    6 2
    13    5   14 1
    14    6    7 1
    15    6    8 1
    16    7   32 1
    17    8    9 1
    18    8   33 1
    19    8   34 1
    20    9   13 1
    21    9   10 1
    22   10   11 2
    23   10   35 1
    24   11   12 1
    25   12   13 2
    26   12   36 1
    27   14   15 2
    28   14   16 1
    29   16   17 1
    30   17   37 1
    31   17   38 1
    32   17   39 1
    33   18   23 ar
    34   18   19 ar
    35   19   20 ar
    36   19   40 1
    37   20   21 ar
    38   20   41 1
    39   21   22 ar
    40   21   25 1
    41   22   23 ar
    42   22   42 1
    43   23   24 1
    44   26   27 3
@<TRIPOS>MOLECULE
CHEMBL1215620
   43    45     0     0     0
SMALL
USER_CHARGES

@<TRIPOS>ATOM
      1 C1          0.3514    1.4776    0.2632 C.3       1 <0>        -0.1310
      2 C2          0.1825   -0.0135    0.1252 C.2       1 <0>         0.2090
      3 C3         -1.0511   -0.5402    0.0879 C.2       1 <0>        -0.1446
      4 C4         -1.2678   -2.0197   -0.0576 C.3       1 <0>         0.0798
      5 C5         -0.0046   -2.7752    0.2432 C.2       1 <0>        -0.1733
      6 C6          1.1906   -2.1593    0.2746 C.2       1 <0>         0.1610
      7 N1          1.2921   -0.8158    0.0336 N.pl3     1 <0>        -0.6281
      8 C7          2.4326   -2.9590    0.5729 C.3       1 <0>         0.1651
      9 N2          3.0790   -3.3441   -0.6841 N.pl3     1 <0>        -0.3854
     10 C8          4.3613   -3.0983   -1.0252 C.2       1 <0>         0.0464
     11 C9          4.5655   -3.6129   -2.2599 C.2       1 <0>        -0.2630
     12 C10         3.3670   -4.1930   -2.6881 C.2       1 <0>         0.0454
     13 N3          2.4769   -4.0378   -1.7417 N.2       1 <0>        -0.2622
     14 C11        -0.0738   -4.1636    0.4992 C.2       1 <0>         0.5146
     15 O1         -0.1669   -4.9490   -0.4257 O.2       1 <0>        -0.4555
     16 O2         -0.0365   -4.6182    1.7694 O.3       1 <0>        -0.3575
     17 C12        -0.1108   -6.0333    1.9544 C.3       1 <0>         0.0318
     18 C13        -1.7020   -2.3211   -1.4688 C.ar      1 <0>        -0.0801
     19 C14        -0.8756   -1.9995   -2.5294 C.ar      1 <0>        -0.0452
     20 C15        -1.2725   -2.2753   -3.8240 C.ar      1 <0>        -0.1451
     21 C16        -2.4987   -2.8743   -4.0595 C.ar      1 <0>         0.1171
     22 C17        -3.3259   -3.1967   -2.9976 C.ar      1 <0>        -0.1457
     23 C18        -2.9247   -2.9247   -1.7020 C.ar      1 <0>         0.0028
     24 Cl1        -3.9588   -3.3342   -0.3690 Cl        1 <0>        -0.0527
     25 F1         -2.8875   -3.1433   -5.3251 F         1 <0>        -0.1315
     26 C19        -2.1861    0.3270    0.1893 C.1       1 <0>         0.2629
     27 N4         -3.0865    1.0150    0.2699 N.1       1 <0>        -0.4155
     28 H1          1.4132    1.7239    0.2711 H         1 <0>         0.0824
     29 H2         -0.1313    1.9773   -0.5768 H         1 <0>         0.0930
     30 H3         -0.1056    1.8103    1.1952 H         1 <0>         0.0954
     31 H4         -2.0490   -2.3375    0.6330 H         1 <0>         0.1028
     32 H5          2.1505   -0.4284   -0.1986 H         1 <0>         0.4218
     33 H6          3.1202   -2.3549    1.1649 H         1 <0>         0.1217
     34 H7          2.1624   -3.8549    1.1319 H         1 <0>         0.1110
     35 H8          5.0933   -2.5829   -0.4211 H         1 <0>         0.1741
     36 H9          5.4904   -3.5808   -2.8167 H         1 <0>         0.1487
     37 H10         3.2055   -4.6880   -3.6343 H         1 <0>         0.1830
     38 H11        -0.0707   -6.2631    3.0191 H         1 <0>         0.1027
     39 H12        -1.0466   -6.4055    1.5374 H         1 <0>         0.0626
     40 H13         0.7280   -6.5105    1.4478 H         1 <0>         0.0600
     41 H14         0.0806   -1.5320   -2.3461 H         1 <0>         0.1328
     42 H15        -0.6266   -2.0234   -4.6521 H         1 <0>         0.1414
     43 H16        -4.2826   -3.6635   -3.1803 H         1 <0>         0.1472
@<TRIPOS>BOND
     1    1    2 1
     2    1   28 1
     3    1   29 1
     4    1   30 1
     5    2    7 1
     6    2    3 2
     7    3    4 1
     8    3   26 1
     9    4    5 1
    10    4   18 1
    11    4   31 1
    12    5    6 2
    13    5   14 1
    14    6    7 1
    15    6    8 1
    16    7   32 1
    17    8    9 1
    18    8   33 1
    19    8   34 1
    20    9   13 1
    21    9   10 1
    22   10   11 2
    23   10   35 1
    24   11   12 1
    25   11   36 1
    26   12   13 2
    27   12   37 1
    28   14   15 2
    29   14   16 1
    30   16   17 1
    31   17   38 1
    32   17   39 1
    33   17   40 1
    34   18   23 ar
    35   18   19 ar
    36   19   20 ar
    37   19   41 1
    38   20   21 ar
    39   20   42 1
    40   21   22 ar
    41   21   25 1
    42   22   23 ar
    43   22   43 1
    44   23   24 1
    45   26   27 3
@<TRIPOS>MOLECULE
CHEMBL1215620__1
   43    45     0     0     0
SMALL
USER_CHARGES

@<TRIPOS>ATOM
      1 C1          0.4083    1.4795    0.1287 C.3       1 <0>        -0.1308
      2 C2          0.2100   -0.0129    0.0616 C.2       1 <0>         0.2096
      3 C3         -1.0307   -0.5202    0.1246 C.2       1 <0>        -0.1430
      4 C4         -1.2756   -2.0014    0.0704 C.3       1 <0>         0.0796
      5 C5         -0.0619   -2.7237   -0.4417 C.2       1 <0>        -0.1742
      6 C6          1.1435   -2.1288   -0.4818 C.2       1 <0>         0.1620
      7 N1          1.3001   -0.8363   -0.0689 N.pl3     1 <0>        -0.6274
      8 C7          2.3354   -2.8954   -0.9943 C.3       1 <0>         0.1649
      9 N2          2.5462   -2.5816   -2.4097 N.pl3     1 <0>        -0.3836
     10 C8          3.6903   -2.1237   -2.9595 C.2       1 <0>         0.0482
     11 C9          3.4743   -1.9605   -4.2853 C.2       1 <0>        -0.2640
     12 C10         2.1529   -2.3314   -4.5550 C.2       1 <0>         0.0467
     13 N3          1.5974   -2.7097   -3.4324 N.2       1 <0>        -0.2664
     14 C11        -0.1897   -4.0579   -0.8906 C.2       1 <0>         0.5177
     15 O1         -0.6420   -4.2870   -1.9969 O.2       1 <0>        -0.4632
     16 O2          0.1899   -5.0778   -0.0924 O.3       1 <0>        -0.3532
     17 C12         0.0328   -6.4003   -0.6105 C.3       1 <0>         0.0314
     18 C13        -1.6032   -2.5009    1.4540 C.ar      1 <0>        -0.0861
     19 C14        -0.6904   -2.3419    2.4800 C.ar      1 <0>        -0.0551
     20 C15        -0.9895   -2.7995    3.7491 C.ar      1 <0>        -0.1457
     21 C16        -2.2042   -3.4179    3.9938 C.ar      1 <0>         0.1168
     22 C17        -3.1183   -3.5768    2.9666 C.ar      1 <0>        -0.1444
     23 C18        -2.8194   -3.1133    1.6979 C.ar      1 <0>        -0.0015
     24 Cl1        -3.9676   -3.3067    0.4103 Cl        1 <0>        -0.0466
     25 F1         -2.4967   -3.8662    5.2342 F         1 <0>        -0.1305
     26 C19        -2.1457    0.3699    0.2467 C.1       1 <0>         0.2627
     27 N4         -3.0303    1.0760    0.3435 N.1       1 <0>        -0.4160
     28 H1          1.4717    1.7083    0.0586 H         1 <0>         0.0820
     29 H2         -0.1207    1.9539   -0.6978 H         1 <0>         0.0937
     30 H3          0.0173    1.8558    1.0741 H         1 <0>         0.0937
     31 H4         -2.1182   -2.2017   -0.5914 H         1 <0>         0.1056
     32 H5          2.1866   -0.5007    0.1369 H         1 <0>         0.4220
     33 H6          3.2208   -2.6143   -0.4241 H         1 <0>         0.1203
     34 H7          2.1553   -3.9646   -0.8821 H         1 <0>         0.1115
     35 H8          4.6129   -1.9230   -2.4352 H         1 <0>         0.1744
     36 H9          4.1947   -1.6059   -5.0076 H         1 <0>         0.1493
     37 H10         1.6752   -2.3134   -5.5234 H         1 <0>         0.1839
     38 H11         0.3748   -7.1235    0.1298 H         1 <0>         0.1028
     39 H12        -1.0186   -6.5799   -0.8351 H         1 <0>         0.0623
     40 H13         0.6222   -6.5061   -1.5212 H         1 <0>         0.0602
     41 H14         0.2572   -1.8600    2.2894 H         1 <0>         0.1377
     42 H15        -0.2758   -2.6752    4.5501 H         1 <0>         0.1442
     43 H16        -4.0658   -4.0592    3.1563 H         1 <0>         0.1485
@<TRIPOS>BOND
     1    1    2 1
     2    1   28 1
     3    1   29 1
     4    1   30 1
     5    2    7 1
     6    2    3 2
     7    3    4 1
     8    3   26 1
     9    4    5 1
    10    4   18 1
    11    4   31 1
    12    5    6 2
    13    5   14 1
    14    6    7 1
    15    6    8 1
    16    7   32 1
    17    8    9 1
    18    8   33 1
    19    8   34 1
    20    9   13 1
    21    9   10 1
    22   10   11 2
    23   10   35 1
    24   11   12 1
    25   11   36 1
    26   12   13 2
    27   12   37 1
    28   14   15 2
    29   14   16 1
    30   16   17 1
    31   17   38 1
    32   17   39 1
    33   17   40 1
    34   18   23 ar
    35   18   19 ar
    36   19   20 ar
    37   19   41 1
    38   20   21 ar
    39   20   42 1
    40   21   22 ar
    41   21   25 1
    42   22   23 ar
    43   22   43 1
    44   23   24 1
    45   26   27 3
@<TRIPOS>MOLECULE
CHEMBL1095097
   60    65     0     0     0
SMALL
USER_CHARGES

@<TRIPOS>ATOM
      1 C1         -0.0162    1.5280   -0.0315 C.3       1 <0>        -0.1444
      2 C2          0.0034   -0.0019   -0.0364 C.3       1 <0>        -0.0049
      3 C3         -1.4227   -0.5073   -0.1507 C.3       1 <0>        -0.1114
      4 C4         -2.1533   -0.4208    1.1899 C.3       1 <0>        -0.1647
      5 C5         -1.3687   -1.2483    2.1881 C.2       1 <0>         0.3906
      6 O1         -1.9147   -2.0512    2.9157 O.2       1 <0>        -0.4562
      7 C6          0.0808   -1.0336    2.2333 C.2       1 <0>        -0.2132
      8 C7          0.7173   -0.4793    1.1970 C.2       1 <0>        -0.0159
      9 C8          2.2196   -0.2963    1.2924 C.3       1 <0>        -0.0832
     10 C9          2.8898   -0.8506    0.0305 C.3       1 <0>        -0.0728
     11 H1          3.9624   -0.6613    0.0731 H         1 <0>         0.1175
     12 C10         2.2946   -0.1508   -1.1894 C.3       1 <0>        -0.0523
     13 H2          2.4227    0.9266   -1.0857 H         1 <0>         0.1196
     14 C11         0.7989   -0.4798   -1.2599 C.3       1 <0>         0.0385
     15 C12         0.1132   -0.6297   -2.6024 C.3       1 <0>         0.0154
     16 H3         -0.9323   -0.3289   -2.6706 H         1 <0>         0.1262
     17 O2          0.4261   -1.7617   -1.7763 O.3       1 <0>        -0.3362
     18 C13         0.9162   -0.5377   -3.9086 C.3       1 <0>        -0.1028
     19 C14         2.2294    0.1772   -3.6295 C.3       1 <0>        -0.0462
     20 C15         2.9401   -0.6116   -2.4833 C.3       1 <0>        -0.0860
     21 H4          2.8443   -1.6900   -2.6098 H         1 <0>         0.1010
     22 C16         4.3987   -0.1423   -2.6310 C.3       1 <0>        -0.1122
     23 C17         4.6109   -0.0838   -4.1662 C.3       1 <0>        -0.1418
     24 C18         3.2253    0.1182   -4.7771 C.3       1 <0>         0.1178
     25 C19         2.9163   -1.0526   -5.7317 C.3       1 <0>        -0.1545
     26 C20         3.5552   -0.5256   -7.0441 C.3       1 <0>        -0.1875
     27 C21         3.6928    0.9676   -6.8117 C.2       1 <0>         0.4791
     28 O3          4.1999    1.7526   -7.5777 O.2       1 <0>        -0.4486
     29 O4          3.1572    1.2783   -5.6124 O.3       1 <0>        -0.3250
     30 C22         1.9669    1.6303   -3.2288 C.3       1 <0>        -0.1437
     31 C23         2.6419   -2.3341   -0.0633 C.2       1 <0>         0.4610
     32 O5          1.6842   -2.8226    0.4881 O.2       1 <0>        -0.4773
     33 O6          3.4850   -3.1128   -0.7594 O.3       1 <0>        -0.3533
     34 C24         3.1888   -4.5100   -0.8060 C.3       1 <0>         0.0354
     35 H5          1.0067    1.9045   -0.0270 H         1 <0>         0.0660
     36 H6         -0.5319    1.8876   -0.9219 H         1 <0>         0.0712
     37 H7         -0.5375    1.8818    0.8580 H         1 <0>         0.0704
     38 H8         -1.9563    0.0936   -0.8872 H         1 <0>         0.0814
     39 H9         -1.4077   -1.5455   -0.4825 H         1 <0>         0.0823
     40 H10        -2.1969    0.6165    1.5217 H         1 <0>         0.1012
     41 H11        -3.1621   -0.8210    1.0885 H         1 <0>         0.0939
     42 H12         0.6419   -1.3412    3.1032 H         1 <0>         0.1315
     43 H13         2.4502    0.7646    1.3891 H         1 <0>         0.1030
     44 H14         2.5950   -0.8292    2.1660 H         1 <0>         0.0878
     45 H15         1.1191   -1.5407   -4.2838 H         1 <0>         0.0888
     46 H16         0.3457    0.0227   -4.6492 H         1 <0>         0.0882
     47 H17         4.5305    0.8448   -2.1880 H         1 <0>         0.0770
     48 H18         5.0806   -0.8614   -2.1770 H         1 <0>         0.0805
     49 H19         5.2426    0.7658   -4.4255 H         1 <0>         0.0793
     50 H20         5.0647   -1.0105   -4.5178 H         1 <0>         0.0862
     51 H21         3.4003   -1.9707   -5.3988 H         1 <0>         0.0998
     52 H22         1.8417   -1.1949   -5.8459 H         1 <0>         0.0971
     53 H23         4.5335   -0.9795   -7.2020 H         1 <0>         0.1121
     54 H24         2.9004   -0.7214   -7.8933 H         1 <0>         0.1144
     55 H25         1.3610    1.6536   -2.3230 H         1 <0>         0.0683
     56 H26         2.9161    2.1333   -3.0441 H         1 <0>         0.0644
     57 H27         1.4367    2.1390   -4.0339 H         1 <0>         0.0685
     58 H28         3.9465   -5.0224   -1.3989 H         1 <0>         0.0996
     59 H29         3.1846   -4.9145    0.2061 H         1 <0>         0.0583
     60 H30         2.2095   -4.6588   -1.2609 H         1 <0>         0.0607
@<TRIPOS>BOND
     1    1    2 1
     2    1   35 1
     3    1   36 1
     4    1   37 1
     5    2    8 1
     6    2   14 1
     7    2    3 1
     8    3    4 1
     9    3   38 1
    10    3   39 1
    11    4    5 1
    12    4   40 1
    13    4   41 1
    14    5    6 2
    15    5    7 1
    16    7    8 2
    17    7   42 1
    18    8    9 1
    19    9   10 1
    20    9   43 1
    21    9   44 1
    22   10   11 1
    23   10   12 1
    24   10   31 1
    25   12   13 1
    26   12   20 1
    27   12   14 1
    28   14   17 1
    29   14   15 1
    30   15   16 1
    31   15   17 1
    32   15   18 1
    33   18   19 1
    34   18   45 1
    35   18   46 1
    36   19   24 1
    37   19   20 1
    38   19   30 1
    39   20   21 1
    40   20   22 1
    41   22   23 1
    42   22   47 1
    43   22   48 1
    44   23   24 1
    45   23   49 1
    46   23   50 1
    47   24   29 1
    48   24   25 1
    49   25   26 1
    50   25   51 1
    51   25   52 1
    52   26   27 1
    53   26   53 1
    54   26   54 1
    55   27   28 2
    56   27   29 1
    57   30   55 1
    58   30   56 1
    59   30   57 1
    60   31   32 2
    61   31   33 1
    62   33   34 1
    63   34   58 1
    64   34   59 1
    65   34   60 1
@<TRIPOS>MOLECULE
CHEMBL522432
   43    46     0     0     0
SMALL
USER_CHARGES

@<TRIPOS>ATOM
      1 C1         -1.7809    1.9077   -0.1783 C.3       1 <0>        -0.1900
      2 C2         -1.2493    0.4803   -0.0339 C.3       1 <0>         0.2224
      3 C3         -2.3991   -0.4677   -0.1798 C.ar      1 <0>        -0.1316
      4 C4         -2.6225   -0.9587   -1.4610 C.ar      1 <0>        -0.0509
      5 C5         -3.6590   -1.8490   -1.7207 C.ar      1 <0>        -0.0465
      6 C6         -4.4877   -2.2538   -0.6710 C.ar      1 <0>        -0.0848
      7 C7         -4.2661   -1.7668    0.5903 C.ar      1 <0>        -0.1566
      8 C8         -3.2202   -0.8646    0.8578 C.ar      1 <0>         0.1904
      9 N1         -3.1239   -0.4537    2.1679 N.am      1 <0>        -0.6462
     10 C9         -2.2497    0.2263    2.8605 C.2       1 <0>         0.4966
     11 O1         -2.3835    0.2207    4.0660 O.2       1 <0>        -0.5281
     12 C10        -1.1040    1.0078    2.3157 C.3       1 <0>         0.0467
     13 O2         -0.5547    0.3901    1.1742 O.3       1 <0>        -0.3475
     14 C11        -3.8813   -2.3595   -3.0887 C.2       1 <0>         0.0979
     15 C12        -3.4447   -1.7649   -4.2527 C.2       1 <0>        -0.1778
     16 C13        -3.8613   -2.5629   -5.3175 C.2       1 <0>        -0.1058
     17 C14        -4.5485   -3.6366   -4.7867 C.2       1 <0>         0.0545
     18 N2         -4.5500   -3.5053   -3.4162 N.pl3     1 <0>        -0.4153
     19 C15        -5.1681   -4.4358   -2.4683 C.3       1 <0>         0.0557
     20 C16        -5.1488   -4.7027   -5.5308 C.1       1 <0>         0.2768
     21 N3         -5.6250   -5.5484   -6.1211 N.1       1 <0>        -0.4041
     22 C17        -0.2802    0.2215   -1.1586 C.2       1 <0>        -0.1044
     23 C18         0.7249   -0.7167   -1.0166 C.2       1 <0>        -0.1368
     24 C19         1.5799   -0.9252   -2.0475 C.2       1 <0>        -0.1691
     25 S1          0.9715    0.2246   -3.2702 S.3       1 <0>         0.0548
     26 C20        -0.3846    0.9014   -2.3266 C.2       1 <0>        -0.1757
     27 H1         -0.9460    2.6085   -0.1744 H         1 <0>         0.0802
     28 H2         -2.3273    1.9988   -1.1171 H         1 <0>         0.0808
     29 H3         -2.4481    2.1329    0.6537 H         1 <0>         0.0650
     30 H4         -1.9793   -0.6435   -2.2693 H         1 <0>         0.1444
     31 H5         -5.2971   -2.9454   -0.8526 H         1 <0>         0.1350
     32 H6         -4.9094   -2.0828    1.3982 H         1 <0>         0.1336
     33 H7         -3.8832   -0.7348    2.7020 H         1 <0>         0.4009
     34 H8         -1.4489    2.0068    2.0488 H         1 <0>         0.0988
     35 H9         -0.3330    1.0911    3.0817 H         1 <0>         0.1436
     36 H10        -2.8814   -0.8464   -4.3268 H         1 <0>         0.1512
     37 H11        -3.6801   -2.3753   -6.3655 H         1 <0>         0.1544
     38 H12        -6.1678   -4.0841   -2.2135 H         1 <0>         0.0856
     39 H13        -5.2353   -5.4248   -2.9215 H         1 <0>         0.0882
     40 H14        -4.5609   -4.4907   -1.5648 H         1 <0>         0.0975
     41 H15         0.8276   -1.2751   -0.0979 H         1 <0>         0.1384
     42 H16         2.4132   -1.6092   -2.1123 H         1 <0>         0.1871
     43 H17        -1.1014    1.6571   -2.6120 H         1 <0>         0.1903
@<TRIPOS>BOND
     1    1    2 1
     2    1   27 1
     3    1   28 1
     4    1   29 1
     5    2   13 1
     6    2    3 1
     7    2   22 1
     8    3    8 ar
     9    3    4 ar
    10    4    5 ar
    11    4   30 1
    12    5    6 ar
    13    5   14 1
    14    6    7 ar
    15    6   31 1
    16    7    8 ar
    17    7   32 1
    18    8    9 1
    19    9   10 am
    20    9   33 1
    21   10   11 2
    22   10   12 1
    23   12   13 1
    24   12   34 1
    25   12   35 1
    26   14   18 1
    27   14   15 2
    28   15   16 1
    29   15   36 1
    30   16   17 2
    31   16   37 1
    32   17   18 1
    33   17   20 1
    34   18   19 1
    35   19   38 1
    36   19   39 1
    37   19   40 1
    38   20   21 3
    39   22   26 2
    40   22   23 1
    41   23   24 2
    42   23   41 1
    43   24   25 1
    44   24   42 1
    45   25   26 1
    46   26   43 1
@<TRIPOS>MOLECULE
CHEMBL522432__1
   43    46     0     0     0
SMALL
USER_CHARGES

@<TRIPOS>ATOM
      1 C1          0.3407    0.1695    0.2022 C.3       1 <0>        -0.1899
      2 C2          0.3138   -1.3102   -0.1859 C.3       1 <0>         0.2225
      3 C3          0.8174   -1.4382   -1.5902 C.ar      1 <0>        -0.1314
      4 C4         -0.1523   -1.4277   -2.5863 C.ar      1 <0>        -0.0515
      5 C5          0.1927   -1.5421   -3.9288 C.ar      1 <0>        -0.0461
      6 C6          1.5399   -1.6705   -4.2768 C.ar      1 <0>        -0.0856
      7 C7          2.4934   -1.6796   -3.2929 C.ar      1 <0>        -0.1564
      8 C8          2.1497   -1.5614   -1.9337 C.ar      1 <0>         0.1904
      9 N1          3.2123   -1.5762   -1.0591 N.am      1 <0>        -0.6462
     10 C9          3.3388   -1.6446    0.2393 C.2       1 <0>         0.4966
     11 O1          4.4536   -1.8518    0.6698 O.2       1 <0>        -0.5280
     12 C10         2.2486   -1.4928    1.2436 C.3       1 <0>         0.0468
     13 O2          1.0338   -2.0287    0.7710 O.3       1 <0>        -0.3473
     14 C11        -0.8515   -1.5283   -4.9732 C.2       1 <0>         0.0973
     15 C12        -2.1886   -1.8012   -4.7810 C.2       1 <0>        -0.1772
     16 C13        -2.8268   -1.6798   -6.0146 C.2       1 <0>        -0.1057
     17 C14        -1.8673   -1.3335   -6.9454 C.2       1 <0>         0.0545
     18 N2         -0.6581   -1.2372   -6.2942 N.pl3     1 <0>        -0.4155
     19 C15         0.6218   -0.8855   -6.9142 C.3       1 <0>         0.0556
     20 C16        -2.0917   -1.1081   -8.3416 C.1       1 <0>         0.2768
     21 N3         -2.2698   -0.9292   -9.4492 N.1       1 <0>        -0.4041
     22 C17        -1.1175   -1.7806   -0.1543 C.2       1 <0>        -0.1049
     23 C18        -1.4143   -3.1087    0.0877 C.2       1 <0>        -0.1362
     24 C19        -2.7122   -3.4989    0.1093 C.2       1 <0>        -0.1689
     25 S1         -3.5645   -1.9649   -0.2190 S.3       1 <0>         0.0535
     26 C20        -2.1335   -0.9065   -0.3573 C.2       1 <0>        -0.1749
     27 H1          1.3729    0.5185    0.2326 H         1 <0>         0.0648
     28 H2         -0.2171    0.7484   -0.5339 H         1 <0>         0.0803
     29 H3         -0.1146    0.2958    1.1845 H         1 <0>         0.0802
     30 H4         -1.1924   -1.3287   -2.3128 H         1 <0>         0.1445
     31 H5          1.8275   -1.7623   -5.3138 H         1 <0>         0.1353
     32 H6          3.5332   -1.7798   -3.5671 H         1 <0>         0.1336
     33 H7          4.0678   -1.5238   -1.5132 H         1 <0>         0.4009
     34 H8          2.5337   -2.0098    2.1599 H         1 <0>         0.1438
     35 H9          2.1099   -0.4339    1.4616 H         1 <0>         0.0986
     36 H10        -2.6575   -2.0620   -3.8437 H         1 <0>         0.1515
     37 H11        -3.8789   -1.8295   -6.2071 H         1 <0>         0.1544
     38 H12         1.1651   -1.7959   -7.1675 H         1 <0>         0.0856
     39 H13         0.4400   -0.3069   -7.8199 H         1 <0>         0.0883
     40 H14         1.2126   -0.2921   -6.2164 H         1 <0>         0.0977
     41 H15        -0.6238   -3.8249    0.2566 H         1 <0>         0.1392
     42 H16        -3.1239   -4.4826    0.2804 H         1 <0>         0.1876
     43 H17        -2.0888    0.1547   -0.5529 H         1 <0>         0.1896
@<TRIPOS>BOND
     1    1    2 1
     2    1   27 1
     3    1   28 1
     4    1   29 1
     5    2   13 1
     6    2    3 1
     7    2   22 1
     8    3    8 ar
     9    3    4 ar
    10    4    5 ar
    11    4   30 1
    12    5    6 ar
    13    5   14 1
    14    6    7 ar
    15    6   31 1
    16    7    8 ar
    17    7   32 1
    18    8    9 1
    19    9   10 am
    20    9   33 1
    21   10   11 2
    22   10   12 1
    23   12   13 1
    24   12   34 1
    25   12   35 1
    26   14   18 1
    27   14   15 2
    28   15   16 1
    29   15   36 1
    30   16   17 2
    31   16   37 1
    32   17   18 1
    33   17   20 1
    34   18   19 1
    35   19   38 1
    36   19   39 1
    37   19   40 1
    38   20   21 3
    39   22   26 2
    40   22   23 1
    41   23   24 2
    42   23   41 1
    43   24   25 1
    44   24   42 1
    45   25   26 1
    46   26   43 1
@<TRIPOS>MOLECULE
CHEMBL216273
   58    59     0     0     0
SMALL
USER_CHARGES

@<TRIPOS>ATOM
      1 C1          0.5328   -0.3124    1.3330 C.3       1 <0>        -0.1454
      2 C2          0.1421   -1.7887    1.2389 C.3       1 <0>        -0.1325
      3 H1          0.6037   -2.2356    0.3583 H         1 <0>         0.0963
      4 C3         -1.3827   -1.9148    1.1436 C.3       1 <0>         0.0630
      5 N1         -1.9897   -1.4528    2.3981 N.3       1 <0>        -0.5291
      6 C4         -1.6290   -2.3228    3.5246 C.3       1 <0>         0.0484
      7 C5         -0.1209   -2.2243    3.7815 C.3       1 <0>        -0.1286
      8 H2          0.1713   -2.9523    4.5383 H         1 <0>         0.0939
      9 C6          0.6022   -2.5192    2.4830 C.2       1 <0>         0.3671
     10 O1          1.5136   -3.3103    2.4409 O.2       1 <0>        -0.4547
     11 C7          0.2300   -0.8140    4.2597 C.3       1 <0>        -0.1471
     12 C8         -3.4484   -1.3391    2.2667 C.3       1 <0>         0.0235
     13 C9         -3.9821   -0.3728    3.3261 C.3       1 <0>         0.1054
     14 C10        -5.4925   -0.2051    3.1487 C.3       1 <0>        -0.1573
     15 C11        -6.0453    0.6651    4.2792 C.3       1 <0>        -0.0108
     16 C12        -7.4988    0.2768    4.5576 C.3       1 <0>        -0.1376
     17 C13        -5.2094    0.4514    5.5427 C.3       1 <0>        -0.1602
     18 C14        -5.9815    2.1152    3.8739 C.ar      1 <0>        -0.0516
     19 C15        -5.6175    2.4575    2.5857 C.ar      1 <0>        -0.1562
     20 C16        -5.5592    3.7894    2.2130 C.ar      1 <0>         0.0731
     21 C17        -5.8652    4.7805    3.1305 C.ar      1 <0>        -0.1261
     22 C18        -6.2294    4.4411    4.4189 C.ar      1 <0>        -0.1733
     23 C19        -6.2938    3.1065    4.7922 C.ar      1 <0>         0.1188
     24 O2         -6.6575    2.7709    6.0583 O.3       1 <0>        -0.3019
     25 C20        -6.9653    3.8437    6.9508 C.3       1 <0>         0.0213
     26 F1         -5.2031    4.1227    0.9531 F         1 <0>        -0.1400
     27 C21        -3.2962    0.9857    3.1690 C.3       1 <0>         0.4705
     28 F2         -3.5536    1.4931    1.8909 F         1 <0>        -0.1749
     29 F3         -3.7917    1.8723    4.1312 F         1 <0>        -0.1574
     30 F4         -1.9162    0.8341    3.3414 F         1 <0>        -0.1523
     31 O3         -3.7106   -0.8959    4.6279 O.3       1 <0>        -0.5200
     32 H3          1.5285   -0.2272    1.7683 H         1 <0>         0.0547
     33 H4          0.5333    0.1276    0.3358 H         1 <0>         0.0627
     34 H5         -0.1850    0.2140    1.9621 H         1 <0>         0.0910
     35 H6         -1.7470   -1.3046    0.3171 H         1 <0>         0.0895
     36 H7         -1.6513   -2.9572    0.9721 H         1 <0>         0.0417
     37 H8         -2.1711   -2.0068    4.4160 H         1 <0>         0.1165
     38 H9         -1.8907   -3.3537    3.2861 H         1 <0>         0.0356
     39 H10        -0.2613   -0.6209    5.2133 H         1 <0>         0.0658
     40 H11         1.3097   -0.7306    4.3838 H         1 <0>         0.0487
     41 H12        -0.1083   -0.0857    3.5226 H         1 <0>         0.0933
     42 H13        -3.6955   -0.9627    1.2741 H         1 <0>         0.0973
     43 H14        -3.9033   -2.3197    2.4071 H         1 <0>         0.0659
     44 H15        -5.6949    0.2727    2.1901 H         1 <0>         0.0942
     45 H16        -5.9723   -1.1835    3.1754 H         1 <0>         0.0954
     46 H17        -7.5361   -0.7457    4.9334 H         1 <0>         0.0593
     47 H18        -7.9193    0.9531    5.3018 H         1 <0>         0.0690
     48 H19        -8.0764    0.3465    3.6358 H         1 <0>         0.0524
     49 H20        -4.2007    0.8311    5.3795 H         1 <0>         0.0979
     50 H21        -5.6677    0.9839    6.3760 H         1 <0>         0.0570
     51 H22        -5.1640   -0.6131    5.7726 H         1 <0>         0.0609
     52 H23        -5.3779    1.6856    1.8694 H         1 <0>         0.1580
     53 H24        -5.8187    5.8192    2.8386 H         1 <0>         0.1352
     54 H25        -6.4677    5.2143    5.1344 H         1 <0>         0.1361
     55 H26        -7.7980    4.4219    6.5504 H         1 <0>         0.0546
     56 H27        -7.2394    3.4386    7.9249 H         1 <0>         0.1006
     57 H28        -6.0932    4.4887    7.0579 H         1 <0>         0.0555
     58 H29        -4.1153   -1.7575    4.7979 H         1 <0>         0.3872
@<TRIPOS>BOND
     1    1    2 1
     2    1   32 1
     3    1   33 1
     4    1   34 1
     5    2    3 1
     6    2    9 1
     7    2    4 1
     8    4    5 1
     9    4   35 1
    10    4   36 1
    11    5    6 1
    12    5   12 1
    13    6    7 1
    14    6   37 1
    15    6   38 1
    16    7    8 1
    17    7    9 1
    18    7   11 1
    19    9   10 2
    20   11   39 1
    21   11   40 1
    22   11   41 1
    23   12   13 1
    24   12   42 1
    25   12   43 1
    26   13   14 1
    27   13   27 1
    28   13   31 1
    29   14   15 1
    30   14   44 1
    31   14   45 1
    32   15   16 1
    33   15   17 1
    34   15   18 1
    35   16   46 1
    36   16   47 1
    37   16   48 1
    38   17   49 1
    39   17   50 1
    40   17   51 1
    41   18   23 ar
    42   18   19 ar
    43   19   20 ar
    44   19   52 1
    45   20   21 ar
    46   20   26 1
    47   21   22 ar
    48   21   53 1
    49   22   23 ar
    50   22   54 1
    51   23   24 1
    52   24   25 1
    53   25   55 1
    54   25   56 1
    55   25   57 1
    56   27   28 1
    57   27   29 1
    58   27   30 1
    59   31   58 1
@<TRIPOS>MOLECULE
CHEMBL216273__1
   59    60     0     0     0
SMALL
USER_CHARGES

@<TRIPOS>ATOM
      1 C1         -1.1199    6.9976    1.7108 C.3       1 <0>        -0.1613
      2 C2         -2.5319    6.6722    2.2020 C.3       1 <0>        -0.1592
      3 H1         -3.0562    7.5947    2.4515 H         1 <0>         0.1462
      4 C3         -2.4542    5.7705    3.4393 C.3       1 <0>        -0.0012
      5 N1         -1.8711    4.4764    3.0659 N.4       1 <0>        -0.4015
      6 C4         -2.7785    3.7520    2.1681 C.3       1 <0>        -0.0342
      7 C5         -2.8810    4.4989    0.8334 C.3       1 <0>        -0.1526
      8 H2         -3.6307    4.0222    0.2019 H         1 <0>         0.1451
      9 C6         -3.2904    5.9295    1.1215 C.2       1 <0>         0.3493
     10 O1         -4.1894    6.4583    0.5127 O.2       1 <0>        -0.3953
     11 C7         -1.5242    4.4818    0.1266 C.3       1 <0>        -0.1663
     12 C8         -1.6443    3.6771    4.2773 C.3       1 <0>        -0.0394
     13 C9         -0.7873    2.4579    3.9309 C.3       1 <0>         0.0396
     14 C10        -0.3518    1.7578    5.2197 C.3       1 <0>        -0.1289
     15 C11         0.6434    0.6451    4.8844 C.3       1 <0>         0.0018
     16 C12         2.0304    1.0274    5.4050 C.3       1 <0>        -0.1922
     17 C13         0.1922   -0.6589    5.5453 C.3       1 <0>        -0.1432
     18 C14         0.7020    0.4570    3.3903 C.ar      1 <0>        -0.1668
     19 C15        -0.4574    0.2175    2.6779 C.ar      1 <0>        -0.0477
     20 C16        -0.4041    0.0451    1.3054 C.ar      1 <0>         0.0306
     21 C17         0.8110    0.1119    0.6446 C.ar      1 <0>        -0.0893
     22 C18         1.9716    0.3512    1.3544 C.ar      1 <0>        -0.2070
     23 C19         1.9189    0.5298    2.7291 C.ar      1 <0>         0.1535
     24 O2          3.0596    0.7709    3.4281 O.3       1 <0>        -0.2746
     25 C20         4.2769    0.8327    2.6821 C.3       1 <0>        -0.0103
     26 F1         -1.5385   -0.1890    0.6100 F         1 <0>        -0.1432
     27 C21         0.4501    2.9090    3.1523 C.3       1 <0>         0.4301
     28 F2          0.5705    4.3004    3.2333 F         1 <0>        -0.1856
     29 F3          1.5896    2.3097    3.6998 F         1 <0>        -0.0983
     30 F4          0.3218    2.5292    1.8120 F         1 <0>        -0.1518
     31 O3         -1.5494    1.5518    3.1307 O.3       1 <0>        -0.4601
     32 H3         -1.1305    7.1167    0.6274 H         1 <0>         0.0867
     33 H4         -0.7781    7.9228    2.1747 H         1 <0>         0.0956
     34 H5         -0.4452    6.1851    1.9805 H         1 <0>         0.0543
     35 H6         -1.8301    6.2454    4.1962 H         1 <0>         0.1447
     36 H7         -3.4562    5.6157    3.8395 H         1 <0>         0.1404
     37 H8         -2.3919    2.7479    1.9937 H         1 <0>         0.1673
     38 H9         -3.7660    3.6868    2.6248 H         1 <0>         0.1380
     39 H10        -1.2662    3.4568   -0.1397 H         1 <0>         0.0930
     40 H11        -1.5773    5.0895   -0.7767 H         1 <0>         0.0903
     41 H12        -0.7624    4.8868    0.7928 H         1 <0>         0.0543
     42 H13        -1.1288    4.2839    5.0218 H         1 <0>         0.1537
     43 H14        -2.6021    3.3458    4.6787 H         1 <0>         0.1599
     44 H15         0.1218    2.4808    5.8838 H         1 <0>         0.1000
     45 H16        -1.2241    1.3286    5.7127 H         1 <0>         0.1074
     46 H17         2.1081    0.7633    6.4597 H         1 <0>         0.0537
     47 H18         2.7916    0.4907    4.8389 H         1 <0>         0.1334
     48 H19         2.1795    2.1008    5.2874 H         1 <0>         0.0752
     49 H20        -0.7550   -0.9779    5.1104 H         1 <0>         0.0585
     50 H21         0.9454   -1.4294    5.3805 H         1 <0>         0.0662
     51 H22         0.0647   -0.4985    6.6159 H         1 <0>         0.0631
     52 H23        -1.4057    0.1644    3.1921 H         1 <0>         0.1974
     53 H24         0.8513   -0.0235   -0.4261 H         1 <0>         0.1329
     54 H25         2.9192    0.4028    0.8388 H         1 <0>         0.1359
     55 H26         4.4401   -0.1177    2.1738 H         1 <0>         0.0598
     56 H27         4.2107    1.6325    1.9445 H         1 <0>         0.0550
     57 H28         5.1082    1.0303    3.3588 H         1 <0>         0.1028
     58 H29        -2.4195    1.3408    3.4960 H         1 <0>         0.3774
     59 H30        -0.9899    4.6291    2.5987 H         1 <0>         0.4167
@<TRIPOS>BOND
     1    1    2 1
     2    1   32 1
     3    1   33 1
     4    1   34 1
     5    2    3 1
     6    2    9 1
     7    2    4 1
     8    4    5 1
     9    4   35 1
    10    4   36 1
    11    5    6 1
    12    5   12 1
    13    5   59 1
    14    6    7 1
    15    6   37 1
    16    6   38 1
    17    7    8 1
    18    7    9 1
    19    7   11 1
    20    9   10 2
    21   11   39 1
    22   11   40 1
    23   11   41 1
    24   12   13 1
    25   12   42 1
    26   12   43 1
    27   13   14 1
    28   13   27 1
    29   13   31 1
    30   14   15 1
    31   14   44 1
    32   14   45 1
    33   15   16 1
    34   15   17 1
    35   15   18 1
    36   16   46 1
    37   16   47 1
    38   16   48 1
    39   17   49 1
    40   17   50 1
    41   17   51 1
    42   18   23 ar
    43   18   19 ar
    44   19   20 ar
    45   19   52 1
    46   20   21 ar
    47   20   26 1
    48   21   22 ar
    49   21   53 1
    50   22   23 ar
    51   22   54 1
    52   23   24 1
    53   24   25 1
    54   25   55 1
    55   25   56 1
    56   25   57 1
    57   27   28 1
    58   27   29 1
    59   27   30 1
    60   31   58 1
@<TRIPOS>MOLECULE
CHEMBL216273__2
   58    59     0     0     0
SMALL
USER_CHARGES

@<TRIPOS>ATOM
      1 C1         -6.0097   -1.2716   -1.7948 C.3       1 <0>        -0.1419
      2 C2         -5.2763   -0.0951   -2.4420 C.3       1 <0>        -0.1336
      3 H1         -4.6036   -0.4627   -3.2169 H         1 <0>         0.0985
      4 C3         -4.4740    0.6625   -1.3778 C.3       1 <0>         0.0629
      5 N1         -5.3982    1.2857   -0.4222 N.3       1 <0>        -0.5333
      6 C4         -6.2151    2.3253   -1.0609 C.3       1 <0>         0.0551
      7 C5         -7.1355    1.6805   -2.1036 C.3       1 <0>        -0.1337
      8 H2         -7.6599    2.4566   -2.6611 H         1 <0>         0.0987
      9 C6         -6.2811    0.8613   -3.0495 C.2       1 <0>         0.3672
     10 O1         -6.3961    0.9678   -4.2469 O.2       1 <0>        -0.4502
     11 C7         -8.1497    0.7723   -1.4054 C.3       1 <0>        -0.1474
     12 C8         -4.6735    1.8238    0.7368 C.3       1 <0>         0.0261
     13 C9         -5.4989    1.5969    2.0048 C.3       1 <0>         0.1110
     14 C10        -5.8571    0.1140    2.1216 C.3       1 <0>        -0.1455
     15 C11        -6.7512   -0.0999    3.3447 C.3       1 <0>        -0.0184
     16 C12        -7.6788    1.1048    3.5152 C.3       1 <0>        -0.1631
     17 C13        -7.5890   -1.3651    3.1489 C.3       1 <0>        -0.1343
     18 C14        -5.8929   -0.2510    4.5741 C.ar      1 <0>        -0.0613
     19 C15        -4.6005   -0.7264    4.4606 C.ar      1 <0>        -0.1345
     20 C16        -3.8116   -0.8649    5.5897 C.ar      1 <0>         0.0690
     21 C17        -4.3165   -0.5277    6.8343 C.ar      1 <0>        -0.1240
     22 C18        -5.6082   -0.0523    6.9506 C.ar      1 <0>        -0.1777
     23 C19        -6.3979    0.0924    5.8193 C.ar      1 <0>         0.1269
     24 O2         -7.6674    0.5656    5.9316 O.3       1 <0>        -0.2929
     25 C20        -8.1215    0.8994    7.2448 C.3       1 <0>         0.0147
     26 F1         -2.5481   -1.3298    5.4774 F         1 <0>        -0.1410
     27 C21        -4.6833    2.0224    3.2273 C.3       1 <0>         0.4598
     28 F2         -4.2730    3.3512    3.0747 F         1 <0>        -0.1803
     29 F3         -5.4717    1.9069    4.3772 F         1 <0>        -0.1494
     30 F4         -3.5592    1.1982    3.3478 F         1 <0>        -0.1716
     31 O3         -6.6973    2.3725    1.9382 O.3       1 <0>        -0.5326
     32 H3         -6.8067   -1.6111   -2.4563 H         1 <0>         0.0561
     33 H4         -5.3076   -2.0875   -1.6234 H         1 <0>         0.0652
     34 H5         -6.4373   -0.9544   -0.8437 H         1 <0>         0.0845
     35 H6         -3.8210   -0.0333   -0.8510 H         1 <0>         0.0929
     36 H7         -3.8719    1.4342   -1.8574 H         1 <0>         0.0451
     37 H8         -6.8182    2.8290   -0.3055 H         1 <0>         0.0975
     38 H9         -5.5640    3.0502   -1.5494 H         1 <0>         0.0462
     39 H10        -8.8307    1.3793   -0.8088 H         1 <0>         0.0666
     40 H11        -8.7170    0.2186   -2.1535 H         1 <0>         0.0573
     41 H12        -7.6238    0.0720   -0.7564 H         1 <0>         0.0842
     42 H13        -3.7135    1.3164    0.8325 H         1 <0>         0.0921
     43 H14        -4.5075    2.8921    0.5976 H         1 <0>         0.0724
     44 H15        -6.3875   -0.2035    1.2239 H         1 <0>         0.1114
     45 H16        -4.9449   -0.4726    2.2314 H         1 <0>         0.0890
     46 H17        -8.1838    1.3110    2.5715 H         1 <0>         0.0521
     47 H18        -8.4202    0.8865    4.2839 H         1 <0>         0.0706
     48 H19        -7.0934    1.9750    3.8118 H         1 <0>         0.0979
     49 H20        -6.9320   -2.2342    3.1143 H         1 <0>         0.0545
     50 H21        -8.2874   -1.4705    3.9791 H         1 <0>         0.0614
     51 H22        -8.1444   -1.2920    2.2139 H         1 <0>         0.0614
     52 H23        -4.2057   -0.9904    3.4907 H         1 <0>         0.1441
     53 H24        -3.7002   -0.6369    7.7145 H         1 <0>         0.1349
     54 H25        -6.0018    0.2103    7.9214 H         1 <0>         0.1359
     55 H26        -7.4814    1.6756    7.6642 H         1 <0>         0.0549
     56 H27        -9.1476    1.2634    7.1929 H         1 <0>         0.1001
     57 H28        -8.0817    0.0138    7.8790 H         1 <0>         0.0539
     58 H29        -7.3700    2.0072    1.3474 H         1 <0>         0.3945
@<TRIPOS>BOND
     1    1    2 1
     2    1   32 1
     3    1   33 1
     4    1   34 1
     5    2    3 1
     6    2    9 1
     7    2    4 1
     8    4    5 1
     9    4   35 1
    10    4   36 1
    11    5    6 1
    12    5   12 1
    13    6    7 1
    14    6   37 1
    15    6   38 1
    16    7    8 1
    17    7    9 1
    18    7   11 1
    19    9   10 2
    20   11   39 1
    21   11   40 1
    22   11   41 1
    23   12   13 1
    24   12   42 1
    25   12   43 1
    26   13   14 1
    27   13   27 1
    28   13   31 1
    29   14   15 1
    30   14   44 1
    31   14   45 1
    32   15   16 1
    33   15   17 1
    34   15   18 1
    35   16   46 1
    36   16   47 1
    37   16   48 1
    38   17   49 1
    39   17   50 1
    40   17   51 1
    41   18   23 ar
    42   18   19 ar
    43   19   20 ar
    44   19   52 1
    45   20   21 ar
    46   20   26 1
    47   21   22 ar
    48   21   53 1
    49   22   23 ar
    50   22   54 1
    51   23   24 1
    52   24   25 1
    53   25   55 1
    54   25   56 1
    55   25   57 1
    56   27   28 1
    57   27   29 1
    58   27   30 1
    59   31   58 1
@<TRIPOS>MOLECULE
CHEMBL216273__3
   59    60     0     0     0
SMALL
USER_CHARGES

@<TRIPOS>ATOM
      1 C1         -5.2099    0.8796   -2.5945 C.3       1 <0>        -0.1637
      2 C2         -4.4871    2.2054   -2.3477 C.3       1 <0>        -0.1589
      3 H1         -3.6453    2.2985   -3.0337 H         1 <0>         0.1482
      4 C3         -3.9836    2.2584   -0.9008 C.3       1 <0>        -0.0038
      5 N1         -5.1297    2.2707    0.0161 N.4       1 <0>        -0.3882
      6 C4         -5.8838    3.5210   -0.1323 C.3       1 <0>        -0.0153
      7 C5         -6.5329    3.5648   -1.5203 C.3       1 <0>        -0.1583
      8 H2         -7.0079    4.5338   -1.6738 H         1 <0>         0.1483
      9 C6         -5.4475    3.3578   -2.5576 C.2       1 <0>         0.3489
     10 O1         -5.3505    4.0856   -3.5164 O.2       1 <0>        -0.3917
     11 C7         -7.5780    2.4534   -1.6367 C.3       1 <0>        -0.1735
     12 C8         -4.6479    2.1540    1.3990 C.3       1 <0>        -0.0433
     13 C9         -5.6918    1.4192    2.2424 C.3       1 <0>         0.0726
     14 C10        -5.8717   -0.0025    1.7063 C.3       1 <0>        -0.1738
     15 C11        -6.9595   -0.7170    2.5107 C.3       1 <0>        -0.0073
     16 C12        -8.0679    0.2766    2.8644 C.3       1 <0>        -0.1804
     17 C13        -7.5446   -1.8579    1.6760 C.3       1 <0>        -0.1410
     18 C14        -6.3628   -1.2756    3.7768 C.ar      1 <0>        -0.0893
     19 C15        -5.0150   -1.5745    3.8324 C.ar      1 <0>        -0.1340
     20 C16        -4.4665   -2.0872    4.9955 C.ar      1 <0>         0.0705
     21 C17        -5.2676   -2.3017    6.1044 C.ar      1 <0>        -0.1109
     22 C18        -6.6154   -2.0038    6.0515 C.ar      1 <0>        -0.1729
     23 C19        -7.1653   -1.4846    4.8885 C.ar      1 <0>         0.1354
     24 O2         -8.4904   -1.1857    4.8369 O.3       1 <0>        -0.2977
     25 C20        -9.2563   -1.4265    6.0191 C.3       1 <0>         0.0129
     26 F1         -3.1484   -2.3790    5.0485 F         1 <0>        -0.1364
     27 C21        -5.2221    1.3601    3.6973 C.3       1 <0>         0.4750
     28 F2         -4.9049    2.6495    4.1377 F         1 <0>        -0.1686
     29 F3         -6.2427    0.8325    4.4957 F         1 <0>        -0.1320
     30 F4         -4.0895    0.5441    3.7889 F         1 <0>        -0.1577
     31 O3         -6.9374    2.1160    2.1719 O.3       1 <0>        -0.5136
     32 H3         -5.8165    0.9590   -3.4966 H         1 <0>         0.0912
     33 H4         -4.4759    0.0834   -2.7192 H         1 <0>         0.0951
     34 H5         -5.8520    0.6519   -1.7437 H         1 <0>         0.0549
     35 H6         -3.3661    1.3832   -0.6987 H         1 <0>         0.1489
     36 H7         -3.3919    3.1621   -0.7549 H         1 <0>         0.1450
     37 H8         -6.6585    3.5710    0.6328 H         1 <0>         0.1549
     38 H9         -5.2076    4.3686   -0.0206 H         1 <0>         0.1456
     39 H10        -8.4024    2.6568   -0.9533 H         1 <0>         0.0937
     40 H11        -7.9546    2.4144   -2.6588 H         1 <0>         0.0949
     41 H12        -7.1216    1.4972   -1.3810 H         1 <0>         0.0588
     42 H13        -3.7120    1.5955    1.4117 H         1 <0>         0.1586
     43 H14        -4.4828    3.1493    1.8114 H         1 <0>         0.1608
     44 H15        -6.1639    0.0391    0.6570 H         1 <0>         0.0868
     45 H16        -4.9327   -0.5479    1.8006 H         1 <0>         0.1182
     46 H17        -8.4221    0.7643    1.9562 H         1 <0>         0.0456
     47 H18        -8.8940   -0.2540    3.3378 H         1 <0>         0.0925
     48 H19        -7.6772    1.0274    3.5513 H         1 <0>         0.1045
     49 H20        -6.7753   -2.6092    1.4976 H         1 <0>         0.0618
     50 H21        -8.3774   -2.3113    2.2136 H         1 <0>         0.0745
     51 H22        -7.8981   -1.4661    0.7222 H         1 <0>         0.0600
     52 H23        -4.3892   -1.4083    2.9681 H         1 <0>         0.1409
     53 H24        -4.8386   -2.7024    7.0109 H         1 <0>         0.1414
     54 H25        -7.2401   -2.1716    6.9164 H         1 <0>         0.1419
     55 H26        -9.2045   -2.4844    6.2764 H         1 <0>         0.0589
     56 H27        -8.8539   -0.8328    6.8399 H         1 <0>         0.0590
     57 H28       -10.2947   -1.1459    5.8427 H         1 <0>         0.1047
     58 H29        -7.4403    1.9420    1.3645 H         1 <0>         0.3939
     59 H30        -5.7332    1.4895   -0.1926 H         1 <0>         0.4133
@<TRIPOS>BOND
     1    1    2 1
     2    1   32 1
     3    1   33 1
     4    1   34 1
     5    2    3 1
     6    2    9 1
     7    2    4 1
     8    4    5 1
     9    4   35 1
    10    4   36 1
    11    5    6 1
    12    5   12 1
    13    5   59 1
    14    6    7 1
    15    6   37 1
    16    6   38 1
    17    7    8 1
    18    7    9 1
    19    7   11 1
    20    9   10 2
    21   11   39 1
    22   11   40 1
    23   11   41 1
    24   12   13 1
    25   12   42 1
    26   12   43 1
    27   13   14 1
    28   13   27 1
    29   13   31 1
    30   14   15 1
    31   14   44 1
    32   14   45 1
    33   15   16 1
    34   15   17 1
    35   15   18 1
    36   16   46 1
    37   16   47 1
    38   16   48 1
    39   17   49 1
    40   17   50 1
    41   17   51 1
    42   18   23 ar
    43   18   19 ar
    44   19   20 ar
    45   19   52 1
    46   20   21 ar
    47   20   26 1
    48   21   22 ar
    49   21   53 1
    50   22   23 ar
    51   22   54 1
    52   23   24 1
    53   24   25 1
    54   25   55 1
    55   25   56 1
    56   25   57 1
    57   27   28 1
    58   27   29 1
    59   27   30 1
    60   31   58 1
@<TRIPOS>MOLECULE
CHEMBL63896
   69    73     0     0     0
SMALL
USER_CHARGES

@<TRIPOS>ATOM
      1 C1         -0.0184    1.5028    0.0103 C.3       1 <0>        -0.2019
      2 C2          0.0021   -0.0041    0.0020 C.2       1 <0>         0.3926
      3 O1          1.0602   -0.5960   -0.0113 O.2       1 <0>        -0.4566
      4 C3         -1.2623   -0.7572    0.0100 C.ar      1 <0>        -0.1736
      5 C4         -2.4848   -0.0781    0.0195 C.ar      1 <0>        -0.0686
      6 C5         -3.6652   -0.7909    0.0265 C.ar      1 <0>        -0.1303
      7 C6         -3.6421   -2.1747    0.0242 C.ar      1 <0>        -0.0360
      8 C7         -2.4363   -2.8540    0.0153 C.ar      1 <0>        -0.1215
      9 C8         -1.2475   -2.1556    0.0024 C.ar      1 <0>        -0.0566
     10 C9         -4.9369   -2.9459    0.0319 C.3       1 <0>        -0.0225
     11 H1         -5.7801   -2.2553    0.0388 H         1 <0>         0.1017
     12 C10        -5.0131   -3.8511   -1.2035 C.3       1 <0>        -0.0998
     13 C11        -6.3243   -4.6259   -1.1901 C.3       1 <0>        -0.0384
     14 C12        -6.4938   -5.4422    0.0926 C.3       1 <0>        -0.0710
     15 H2         -7.3990   -5.1278    0.6121 H         1 <0>         0.0794
     16 C13        -6.6249   -6.9198   -0.3360 C.3       1 <0>        -0.1190
     17 C14        -5.9274   -6.9735   -1.7184 C.3       1 <0>        -0.1497
     18 C15        -6.3430   -5.6278   -2.3636 C.3       1 <0>         0.1414
     19 C16        -5.3345   -5.2143   -3.4374 C.3       1 <0>        -0.1423
     20 C17        -5.3726   -6.2220   -4.5879 C.3       1 <0>        -0.1257
     21 C18        -4.3641   -5.8086   -5.6617 C.3       1 <0>         0.0759
     22 O2         -4.3997   -6.7498   -6.7363 O.3       1 <0>        -0.5761
     23 O3         -7.6562   -5.7235   -2.9190 O.3       1 <0>        -0.5475
     24 C19        -5.2879   -5.3044    1.0256 C.3       1 <0>        -0.0434
     25 H3         -4.4199   -5.7520    0.5416 H         1 <0>         0.0858
     26 C20        -4.9955   -3.8461    1.2533 C.2       1 <0>        -0.0587
     27 C21        -4.7857   -3.3162    2.4505 C.2       1 <0>        -0.1166
     28 C22        -4.5173   -1.8390    2.6202 C.3       1 <0>        -0.0806
     29 C23        -5.3190   -1.3327    3.8233 C.3       1 <0>        -0.1658
     30 C24        -5.0761   -2.2181    5.0154 C.2       1 <0>         0.3866
     31 O4         -5.0360   -1.7244    6.1245 O.2       1 <0>        -0.4698
     32 C25        -4.8949   -3.6051    4.8724 C.2       1 <0>        -0.2455
     33 C26        -4.7862   -4.1600    3.6476 C.2       1 <0>         0.0238
     34 C27        -4.6487   -5.6494    3.4504 C.3       1 <0>        -0.0956
     35 C28        -5.5778   -6.0676    2.3094 C.3       1 <0>        -0.1123
     36 C29        -7.4973   -3.6531   -1.3264 C.3       1 <0>        -0.1317
     37 H4          1.0042    1.8801    0.0026 H         1 <0>         0.0857
     38 H5         -0.5455    1.8639   -0.8728 H         1 <0>         0.0942
     39 H6         -0.5286    1.8543    0.9071 H         1 <0>         0.0945
     40 H7         -2.5044    1.0017    0.0217 H         1 <0>         0.1339
     41 H8         -4.6101   -0.2679    0.0342 H         1 <0>         0.1313
     42 H9         -2.4266   -3.9340    0.0139 H         1 <0>         0.1260
     43 H10        -0.3074   -2.6871   -0.0091 H         1 <0>         0.1324
     44 H11        -4.9618   -3.2402   -2.1047 H         1 <0>         0.0759
     45 H12        -4.1777   -4.5513   -1.1923 H         1 <0>         0.0725
     46 H13        -6.1151   -7.5704    0.3747 H         1 <0>         0.0709
     47 H14        -7.6745   -7.1996   -0.4266 H         1 <0>         0.0717
     48 H15        -4.8449   -7.0285   -1.6030 H         1 <0>         0.0746
     49 H16        -6.2976   -7.8140   -2.3054 H         1 <0>         0.0714
     50 H17        -5.5900   -4.2236   -3.8135 H         1 <0>         0.0736
     51 H18        -4.3336   -5.1924   -3.0065 H         1 <0>         0.0783
     52 H19        -5.1172   -7.2127   -4.2118 H         1 <0>         0.0723
     53 H20        -6.3736   -6.2439   -5.0188 H         1 <0>         0.0703
     54 H21        -4.6195   -4.8179   -6.0378 H         1 <0>         0.0453
     55 H22        -3.3631   -5.7867   -5.2308 H         1 <0>         0.0451
     56 H23        -3.7841   -6.5499   -7.4547 H         1 <0>         0.3820
     57 H24        -7.7256   -6.3400   -3.6607 H         1 <0>         0.3741
     58 H25        -3.4535   -1.6781    2.7953 H         1 <0>         0.0788
     59 H26        -4.8281   -1.3050    1.7223 H         1 <0>         0.0940
     60 H27        -5.0107   -0.3144    4.0605 H         1 <0>         0.0942
     61 H28        -6.3811   -1.3392    3.5786 H         1 <0>         0.0988
     62 H29        -4.8420   -4.2315    5.7506 H         1 <0>         0.1348
     63 H30        -3.6187   -5.8931    3.1900 H         1 <0>         0.0880
     64 H31        -4.9309   -6.1697    4.3658 H         1 <0>         0.0850
     65 H32        -6.6077   -5.8758    2.6104 H         1 <0>         0.0691
     66 H33        -5.4584   -7.1347    2.1216 H         1 <0>         0.0786
     67 H34        -7.4025   -3.0980   -2.2596 H         1 <0>         0.0548
     68 H35        -8.4336   -4.2111   -1.3291 H         1 <0>         0.0671
     69 H36        -7.4915   -2.9572   -0.4875 H         1 <0>         0.0508
@<TRIPOS>BOND
     1    1    2 1
     2    1   37 1
     3    1   38 1
     4    1   39 1
     5    2    3 2
     6    2    4 1
     7    4    9 ar
     8    4    5 ar
     9    5    6 ar
    10    5   40 1
    11    6    7 ar
    12    6   41 1
    13    7    8 ar
    14    7   10 1
    15    8    9 ar
    16    8   42 1
    17    9   43 1
    18   10   11 1
    19   10   26 1
    20   10   12 1
    21   12   13 1
    22   12   44 1
    23   12   45 1
    24   13   18 1
    25   13   14 1
    26   13   36 1
    27   14   15 1
    28   14   16 1
    29   14   24 1
    30   16   17 1
    31   16   46 1
    32   16   47 1
    33   17   18 1
    34   17   48 1
    35   17   49 1
    36   18   19 1
    37   18   23 1
    38   19   20 1
    39   19   50 1
    40   19   51 1
    41   20   21 1
    42   20   52 1
    43   20   53 1
    44   21   22 1
    45   21   54 1
    46   21   55 1
    47   22   56 1
    48   23   57 1
    49   24   25 1
    50   24   35 1
    51   24   26 1
    52   26   27 2
    53   27   33 1
    54   27   28 1
    55   28   29 1
    56   28   58 1
    57   28   59 1
    58   29   30 1
    59   29   60 1
    60   29   61 1
    61   30   31 2
    62   30   32 1
    63   32   33 2
    64   32   62 1
    65   33   34 1
    66   34   35 1
    67   34   63 1
    68   34   64 1
    69   35   65 1
    70   35   66 1
    71   36   67 1
    72   36   68 1
    73   36   69 1
@<TRIPOS>MOLECULE
CHEMBL65221
   45    48     0     0     0
SMALL
USER_CHARGES

@<TRIPOS>ATOM
      1 C1         -0.0225    1.8097    0.0120 C.3       1 <0>        -0.6373
      2 S1          0.0021   -0.0041    0.0020 S.o2      1 <0>         2.5257
      3 O1          0.8352   -0.4880    1.0465 O.2       1 <0>        -1.0278
      4 O2         -1.3147   -0.5105   -0.1678 O.2       1 <0>        -1.0285
      5 N1          0.7947   -0.4113   -1.3938 N.2       1 <0>        -1.0923
      6 C2          0.9920   -1.7553   -1.7182 C.ar      1 <0>         0.2973
      7 C3          0.5167   -2.7489   -0.8699 C.ar      1 <0>        -0.2582
      8 C4          0.7191   -4.0784   -1.1815 C.ar      1 <0>        -0.0328
      9 C5          1.4019   -4.4166   -2.3423 C.ar      1 <0>        -0.1590
     10 C6          1.8594   -3.4183   -3.2079 C.ar      1 <0>        -0.0743
     11 C7          1.6580   -2.0938   -2.8911 C.ar      1 <0>        -0.1584
     12 C8          2.5343   -3.8138   -4.4948 C.3       1 <0>         0.1865
     13 O3          3.2227   -5.0532   -4.3385 O.3       1 <0>        -0.3058
     14 C9          2.5752   -6.0856   -3.7417 C.ar      1 <0>         0.1424
     15 C10         1.6577   -5.8267   -2.7162 C.ar      1 <0>        -0.0745
     16 C11         1.0079   -6.8792   -2.0765 C.ar      1 <0>         0.1211
     17 C12         1.2655   -8.1838   -2.4728 C.ar      1 <0>        -0.2082
     18 C13         2.1600   -8.4342   -3.4965 C.ar      1 <0>        -0.0778
     19 C14         2.8138   -7.3926   -4.1303 C.ar      1 <0>        -0.1595
     20 O4          0.1285   -6.6304   -1.0712 O.3       1 <0>        -0.3023
     21 C15        -0.4987   -7.7614   -0.4632 C.3       1 <0>         0.4039
     22 F1         -1.2224   -8.4686   -1.4293 F         1 <0>        -0.2012
     23 F2          0.4789   -8.5952    0.0902 F         1 <0>        -0.2012
     24 C16         3.5199   -2.7440   -4.8885 C.ar      1 <0>        -0.0679
     25 C17         4.8011   -2.7596   -4.3696 C.ar      1 <0>        -0.0869
     26 C18         5.7051   -1.7783   -4.7308 C.ar      1 <0>        -0.1229
     27 C19         5.3282   -0.7815   -5.6113 C.ar      1 <0>        -0.1201
     28 C20         4.0473   -0.7663   -6.1308 C.ar      1 <0>        -0.1205
     29 C21         3.1445   -1.7501   -5.7730 C.ar      1 <0>        -0.1027
     30 H1          1.0001    2.1870    0.0043 H         1 <0>         0.1156
     31 H2         -0.5497    2.1708   -0.8711 H         1 <0>         0.1156
     32 H3         -0.5327    2.1613    0.9088 H         1 <0>         0.1019
     33 H4         -0.0109   -2.4805    0.0334 H         1 <0>         0.1058
     34 H5          0.3484   -4.8519   -0.5252 H         1 <0>         0.1243
     35 H6          2.0205   -1.3189   -3.5502 H         1 <0>         0.1203
     36 H7          1.7833   -3.9159   -5.2781 H         1 <0>         0.0820
     37 H8          0.7663   -9.0052   -1.9803 H         1 <0>         0.1304
     38 H9          2.3502   -9.4517   -3.8044 H         1 <0>         0.1290
     39 H10         3.5108   -7.5994   -4.9289 H         1 <0>         0.1308
     40 H11        -1.1749   -7.4233    0.3220 H         1 <0>         0.1785
     41 H12         5.0956   -3.5384   -3.6818 H         1 <0>         0.1249
     42 H13         6.7059   -1.7901   -4.3249 H         1 <0>         0.1199
     43 H14         6.0343   -0.0143   -5.8929 H         1 <0>         0.1183
     44 H15         3.7526    0.0127   -6.8184 H         1 <0>         0.1217
     45 H16         2.1449   -1.7404   -6.1818 H         1 <0>         0.1241
@<TRIPOS>BOND
     1    1    2 1
     2    1   30 1
     3    1   31 1
     4    1   32 1
     5    2    3 2
     6    2    4 2
     7    2    5 1
     8    5    6 1
     9    6   11 ar
    10    6    7 ar
    11    7    8 ar
    12    7   33 1
    13    8    9 ar
    14    8   34 1
    15    9   15 1
    16    9   10 ar
    17   10   11 ar
    18   10   12 1
    19   11   35 1
    20   12   13 1
    21   12   24 1
    22   12   36 1
    23   13   14 1
    24   14   19 ar
    25   14   15 ar
    26   15   16 ar
    27   16   17 ar
    28   16   20 1
    29   17   18 ar
    30   17   37 1
    31   18   19 ar
    32   18   38 1
    33   19   39 1
    34   20   21 1
    35   21   22 1
    36   21   23 1
    37   21   40 1
    38   24   29 ar
    39   24   25 ar
    40   25   26 ar
    41   25   41 1
    42   26   27 ar
    43   26   42 1
    44   27   28 ar
    45   27   43 1
    46   28   29 ar
    47   28   44 1
    48   29   45 1
@<TRIPOS>MOLECULE
CHEMBL65221__1
   45    48     0     0     0
SMALL
USER_CHARGES

@<TRIPOS>ATOM
      1 C1         -0.0225    1.8097    0.0120 C.3       1 <0>        -0.6374
      2 S1          0.0021   -0.0041    0.0020 S.o2      1 <0>         2.5262
      3 O1          0.8352   -0.4880    1.0465 O.2       1 <0>        -1.0277
      4 O2         -1.3147   -0.5105   -0.1678 O.2       1 <0>        -1.0280
      5 N1          0.7947   -0.4113   -1.3938 N.2       1 <0>        -1.0938
      6 C2          0.9920   -1.7553   -1.7182 C.ar      1 <0>         0.2985
      7 C3          0.5167   -2.7489   -0.8699 C.ar      1 <0>        -0.2573
      8 C4          0.7191   -4.0784   -1.1815 C.ar      1 <0>        -0.0324
      9 C5          1.4019   -4.4166   -2.3423 C.ar      1 <0>        -0.1558
     10 C6          1.8594   -3.4183   -3.2079 C.ar      1 <0>        -0.0693
     11 C7          1.6580   -2.0938   -2.8911 C.ar      1 <0>        -0.1620
     12 C8          2.5343   -3.8138   -4.4948 C.3       1 <0>         0.1843
     13 O3          3.2227   -5.0532   -4.3385 O.3       1 <0>        -0.3009
     14 C9          2.5752   -6.0856   -3.7417 C.ar      1 <0>         0.1446
     15 C10         1.6577   -5.8267   -2.7162 C.ar      1 <0>        -0.0758
     16 C11         1.0079   -6.8792   -2.0765 C.ar      1 <0>         0.1209
     17 C12         1.2655   -8.1838   -2.4728 C.ar      1 <0>        -0.2093
     18 C13         2.1600   -8.4342   -3.4965 C.ar      1 <0>        -0.0769
     19 C14         2.8138   -7.3926   -4.1303 C.ar      1 <0>        -0.1640
     20 O4          0.1285   -6.6304   -1.0712 O.3       1 <0>        -0.3019
     21 C15        -0.4987   -7.7614   -0.4632 C.3       1 <0>         0.4037
     22 F1         -1.2224   -8.4686   -1.4293 F         1 <0>        -0.2011
     23 F2          0.4789   -8.5952    0.0902 F         1 <0>        -0.2009
     24 C16         1.4959   -3.9550   -5.5777 C.ar      1 <0>        -0.1008
     25 C17         0.7313   -5.1039   -5.6566 C.ar      1 <0>        -0.1052
     26 C18        -0.2212   -5.2334   -6.6500 C.ar      1 <0>        -0.1205
     27 C19        -0.4094   -4.2138   -7.5643 C.ar      1 <0>        -0.1219
     28 C20         0.3547   -3.0645   -7.4849 C.ar      1 <0>        -0.1223
     29 C21         1.3042   -2.9332   -6.4889 C.ar      1 <0>        -0.1013
     30 H1          1.0001    2.1870    0.0043 H         1 <0>         0.1157
     31 H2         -0.5497    2.1708   -0.8711 H         1 <0>         0.1155
     32 H3         -0.5327    2.1613    0.9088 H         1 <0>         0.1020
     33 H4         -0.0109   -2.4805    0.0334 H         1 <0>         0.1059
     34 H5          0.3484   -4.8519   -0.5252 H         1 <0>         0.1242
     35 H6          2.0205   -1.3189   -3.5502 H         1 <0>         0.1172
     36 H7          3.2472   -3.0400   -4.7796 H         1 <0>         0.1286
     37 H8          0.7663   -9.0052   -1.9803 H         1 <0>         0.1308
     38 H9          2.3502   -9.4517   -3.8044 H         1 <0>         0.1293
     39 H10         3.5108   -7.5994   -4.9289 H         1 <0>         0.1314
     40 H11        -1.1749   -7.4233    0.3220 H         1 <0>         0.1785
     41 H12         0.8783   -5.9005   -4.9423 H         1 <0>         0.1264
     42 H13        -0.8182   -6.1313   -6.7120 H         1 <0>         0.1186
     43 H14        -1.1531   -4.3152   -8.3408 H         1 <0>         0.1180
     44 H15         0.2079   -2.2680   -8.1994 H         1 <0>         0.1210
     45 H16         1.8986   -2.0338   -6.4245 H         1 <0>         0.1250
@<TRIPOS>BOND
     1    1    2 1
     2    1   30 1
     3    1   31 1
     4    1   32 1
     5    2    3 2
     6    2    4 2
     7    2    5 1
     8    5    6 1
     9    6   11 ar
    10    6    7 ar
    11    7    8 ar
    12    7   33 1
    13    8    9 ar
    14    8   34 1
    15    9   15 1
    16    9   10 ar
    17   10   11 ar
    18   10   12 1
    19   11   35 1
    20   12   13 1
    21   12   24 1
    22   12   36 1
    23   13   14 1
    24   14   19 ar
    25   14   15 ar
    26   15   16 ar
    27   16   17 ar
    28   16   20 1
    29   17   18 ar
    30   17   37 1
    31   18   19 ar
    32   18   38 1
    33   19   39 1
    34   20   21 1
    35   21   22 1
    36   21   23 1
    37   21   40 1
    38   24   29 ar
    39   24   25 ar
    40   25   26 ar
    41   25   41 1
    42   26   27 ar
    43   26   42 1
    44   27   28 ar
    45   27   43 1
    46   28   29 ar
    47   28   44 1
    48   29   45 1
@<TRIPOS>MOLECULE
CHEMBL1215549
   42    43     0     0     0
SMALL
USER_CHARGES

@<TRIPOS>ATOM
      1 C1         -0.4276    1.6215   -0.1082 C.3       1 <0>        -0.1524
      2 C2         -0.2839    0.0983   -0.1210 C.3       1 <0>        -0.1232
      3 C3         -1.6646   -0.5455    0.0209 C.3       1 <0>        -0.0993
      4 C4         -1.5230   -2.0457    0.0082 C.2       1 <0>         0.1995
      5 C5         -1.3982   -2.7112    1.1701 C.2       1 <0>        -0.2314
      6 C6         -1.2635   -4.2070    1.2060 C.3       1 <0>         0.0830
      7 C7         -0.9001   -4.7418   -0.1500 C.2       1 <0>        -0.1418
      8 C8         -1.0434   -3.9979   -1.2576 C.2       1 <0>         0.2059
      9 N1         -1.5286   -2.7147   -1.1843 N.pl3     1 <0>        -0.6311
     10 C9         -0.6738   -4.5794   -2.5979 C.3       1 <0>        -0.1333
     11 C10        -0.3890   -6.0747   -0.2630 C.1       1 <0>         0.2629
     12 N2          0.0165   -7.1321   -0.3527 N.1       1 <0>        -0.4184
     13 C11        -2.5722   -4.8126    1.6437 C.ar      1 <0>        -0.0843
     14 C12        -3.7162   -4.5989    0.8975 C.ar      1 <0>        -0.0541
     15 C13        -4.9168   -5.1536    1.2977 C.ar      1 <0>        -0.1462
     16 C14        -4.9746   -5.9242    2.4470 C.ar      1 <0>         0.1153
     17 C15        -3.8292   -6.1386    3.1939 C.ar      1 <0>        -0.1449
     18 C16        -2.6270   -5.5868    2.7889 C.ar      1 <0>        -0.0029
     19 Cl1        -1.1885   -5.8601    3.7216 Cl        1 <0>        -0.0484
     20 F1         -6.1485   -6.4659    2.8391 F         1 <0>        -0.1310
     21 C17        -1.3933   -1.9873    2.3843 C.2       1 <0>         0.5332
     22 O1         -0.3403   -1.7470    2.9451 O.2       1 <0>        -0.4914
     23 O2         -2.5562   -1.5627    2.9215 O.3       1 <0>        -0.3473
     24 C18        -2.4766   -0.8369    4.1499 C.3       1 <0>         0.0296
     25 H1          0.5560    2.0801   -0.2093 H         1 <0>         0.0609
     26 H2         -1.0611    1.9337   -0.9384 H         1 <0>         0.0571
     27 H3         -0.8801    1.9358    0.8323 H         1 <0>         0.0566
     28 H4          0.1686   -0.2160   -1.0615 H         1 <0>         0.0681
     29 H5          0.3496   -0.2139    0.7092 H         1 <0>         0.0731
     30 H6         -2.1171   -0.2311    0.9614 H         1 <0>         0.0951
     31 H7         -2.2981   -0.2332   -0.8094 H         1 <0>         0.0909
     32 H8         -0.4861   -4.4802    1.9196 H         1 <0>         0.1019
     33 H9         -1.8727   -2.2803   -1.9804 H         1 <0>         0.4240
     34 H10        -1.5438   -5.0711   -3.0330 H         1 <0>         0.0941
     35 H11        -0.3385   -3.7812   -3.2602 H         1 <0>         0.0863
     36 H12         0.1283   -5.3063   -2.4698 H         1 <0>         0.0895
     37 H13        -3.6715   -3.9977    0.0014 H         1 <0>         0.1376
     38 H14        -5.8102   -4.9859    0.7145 H         1 <0>         0.1436
     39 H15        -3.8733   -6.7390    4.0905 H         1 <0>         0.1478
     40 H16        -1.8766    0.0612    4.0031 H         1 <0>         0.0611
     41 H17        -3.4794   -0.5554    4.4712 H         1 <0>         0.1027
     42 H18        -2.0131   -1.4629    4.9124 H         1 <0>         0.0618
@<TRIPOS>BOND
     1    1    2 1
     2    1   25 1
     3    1   26 1
     4    1   27 1
     5    2    3 1
     6    2   28 1
     7    2   29 1
     8    3    4 1
     9    3   30 1
    10    3   31 1
    11    4    9 1
    12    4    5 2
    13    5    6 1
    14    5   21 1
    15    6    7 1
    16    6   13 1
    17    6   32 1
    18    7    8 2
    19    7   11 1
    20    8    9 1
    21    8   10 1
    22    9   33 1
    23   10   34 1
    24   10   35 1
    25   10   36 1
    26   11   12 3
    27   13   18 ar
    28   13   14 ar
    29   14   15 ar
    30   14   37 1
    31   15   16 ar
    32   15   38 1
    33   16   17 ar
    34   16   20 1
    35   17   18 ar
    36   17   39 1
    37   18   19 1
    38   21   22 2
    39   21   23 1
    40   23   24 1
    41   24   40 1
    42   24   41 1
    43   24   42 1
@<TRIPOS>MOLECULE
CHEMBL1215549__1
   42    43     0     0     0
SMALL
USER_CHARGES

@<TRIPOS>ATOM
      1 C1         -0.3925    1.6134   -0.1053 C.3       1 <0>        -0.1529
      2 C2         -0.2591    0.0892   -0.1160 C.3       1 <0>        -0.1240
      3 C3         -1.6451   -0.5449    0.0175 C.3       1 <0>        -0.0997
      4 C4         -1.5137   -2.0462    0.0070 C.2       1 <0>         0.1975
      5 C5         -1.3982   -2.7112    1.1701 C.2       1 <0>        -0.2299
      6 C6         -1.2561   -4.2063    1.2073 C.3       1 <0>         0.0837
      7 C7         -1.6519   -4.8119   -0.1093 C.2       1 <0>        -0.1444
      8 C8         -1.7570   -4.0660   -1.2198 C.2       1 <0>         0.2067
      9 N1         -1.5189   -2.7164   -1.1848 N.pl3     1 <0>        -0.6284
     10 C9         -2.1480   -4.7186   -2.5207 C.3       1 <0>        -0.1320
     11 C10        -1.9224   -6.2163   -0.1809 C.1       1 <0>         0.2633
     12 N2         -2.1371   -7.3304   -0.2378 N.1       1 <0>        -0.4188
     13 C11         0.1779   -4.5610    1.5054 C.ar      1 <0>        -0.0782
     14 C12         1.1843   -4.1421    0.6551 C.ar      1 <0>        -0.0545
     15 C13         2.4996   -4.4667    0.9273 C.ar      1 <0>        -0.1464
     16 C14         2.8103   -5.2120    2.0524 C.ar      1 <0>         0.1147
     17 C15         1.8027   -5.6311    2.9040 C.ar      1 <0>        -0.1444
     18 C16         0.4870   -5.3007    2.6328 C.ar      1 <0>         0.0006
     19 Cl1        -0.7768   -5.8206    3.7034 Cl        1 <0>        -0.0519
     20 F1          4.0960   -5.5303    2.3185 F         1 <0>        -0.1315
     21 C17        -1.4104   -1.9875    2.3844 C.2       1 <0>         0.5306
     22 O1         -0.3643   -1.7347    2.9525 O.2       1 <0>        -0.4844
     23 O2         -2.5821   -1.5770    2.9136 O.3       1 <0>        -0.3519
     24 C18        -2.5197   -0.8506    4.1426 C.3       1 <0>         0.0299
     25 H1          0.5949    2.0652   -0.2004 H         1 <0>         0.0609
     26 H2         -1.0184    1.9292   -0.9399 H         1 <0>         0.0571
     27 H3         -0.8489    1.9316    0.8320 H         1 <0>         0.0566
     28 H4          0.1973   -0.2290   -1.0533 H         1 <0>         0.0670
     29 H5          0.3669   -0.2266    0.7186 H         1 <0>         0.0746
     30 H6         -2.1015   -0.2267    0.9548 H         1 <0>         0.0952
     31 H7         -2.2710   -0.2291   -0.8171 H         1 <0>         0.0923
     32 H8         -1.8952   -4.6080    1.9936 H         1 <0>         0.0998
     33 H9         -1.3496   -2.2357   -2.0101 H         1 <0>         0.4228
     34 H10        -3.2330   -4.7022   -2.6238 H         1 <0>         0.0956
     35 H11        -1.6959   -4.1749   -3.3502 H         1 <0>         0.0850
     36 H12        -1.7978   -5.7508   -2.5290 H         1 <0>         0.0889
     37 H13         0.9423   -3.5612   -0.2225 H         1 <0>         0.1352
     38 H14         3.2852   -4.1394    0.2625 H         1 <0>         0.1426
     39 H15         2.0440   -6.2127    3.7815 H         1 <0>         0.1473
     40 H16        -1.9296    0.0547    4.0000 H         1 <0>         0.0610
     41 H17        -3.5281   -0.5813    4.4570 H         1 <0>         0.1026
     42 H18        -2.0540   -1.4712    4.9082 H         1 <0>         0.0620
@<TRIPOS>BOND
     1    1    2 1
     2    1   25 1
     3    1   26 1
     4    1   27 1
     5    2    3 1
     6    2   28 1
     7    2   29 1
     8    3    4 1
     9    3   30 1
    10    3   31 1
    11    4    9 1
    12    4    5 2
    13    5    6 1
    14    5   21 1
    15    6    7 1
    16    6   13 1
    17    6   32 1
    18    7    8 2
    19    7   11 1
    20    8    9 1
    21    8   10 1
    22    9   33 1
    23   10   34 1
    24   10   35 1
    25   10   36 1
    26   11   12 3
    27   13   18 ar
    28   13   14 ar
    29   14   15 ar
    30   14   37 1
    31   15   16 ar
    32   15   38 1
    33   16   17 ar
    34   16   20 1
    35   17   18 ar
    36   17   39 1
    37   18   19 1
    38   21   22 2
    39   21   23 1
    40   23   24 1
    41   24   40 1
    42   24   41 1
    43   24   42 1
@<TRIPOS>MOLECULE
CHEMBL1215552
   43    45     0     0     0
SMALL
USER_CHARGES

@<TRIPOS>ATOM
      1 C1          0.3004    1.4882    0.1858 C.3       1 <0>        -0.1317
      2 C2          0.1575   -0.0088    0.0875 C.2       1 <0>         0.2079
      3 C3         -1.0667   -0.5576    0.0619 C.2       1 <0>        -0.1405
      4 C4         -1.2575   -2.0440   -0.0443 C.3       1 <0>         0.0813
      5 C5          0.0178   -2.7692    0.2790 C.2       1 <0>        -0.1918
      6 C6          1.2021   -2.1321    0.2962 C.2       1 <0>         0.1632
      7 N1          1.2810   -0.7940    0.0195 N.pl3     1 <0>        -0.6263
      8 C7          2.4570   -2.9019    0.6182 C.3       1 <0>         0.1341
      9 N2          3.1318   -3.2784   -0.6264 N.pl3     1 <0>        -0.4640
     10 C8          2.9307   -4.4263   -1.3443 C.2       1 <0>        -0.0395
     11 C9          3.7502   -4.3673   -2.4113 C.2       1 <0>        -0.0242
     12 N3          4.4331   -3.2147   -2.3467 N.2       1 <0>        -0.4827
     13 C10         4.0642   -2.5549   -1.2829 C.2       1 <0>         0.1749
     14 C11        -0.0280   -4.1512    0.5720 C.2       1 <0>         0.5193
     15 O1         -0.1283   -4.9615   -0.3304 O.2       1 <0>        -0.4739
     16 O2          0.0394   -4.5722    1.8525 O.3       1 <0>        -0.3517
     17 C12        -0.0126   -5.9828    2.0752 C.3       1 <0>         0.0286
     18 C13        -1.6830   -2.3904   -1.4479 C.ar      1 <0>        -0.0826
     19 C14        -0.8598   -2.0830   -2.5151 C.ar      1 <0>        -0.0519
     20 C15        -1.2488   -2.4002   -3.8025 C.ar      1 <0>        -0.1445
     21 C16        -2.4640   -3.0264   -4.0243 C.ar      1 <0>         0.1184
     22 C17        -3.2880   -3.3346   -2.9558 C.ar      1 <0>        -0.1443
     23 C18        -2.8947   -3.0211   -1.6671 C.ar      1 <0>         0.0027
     24 Cl1        -3.9247   -3.4126   -0.3257 Cl        1 <0>        -0.0513
     25 F1         -2.8451   -3.3358   -5.2830 F         1 <0>        -0.1301
     26 C19        -2.2168    0.2923    0.1379 C.1       1 <0>         0.2611
     27 N4         -3.1291    0.9664    0.1982 N.1       1 <0>        -0.4121
     28 H1          1.3577    1.7529    0.1891 H         1 <0>         0.0838
     29 H2         -0.1888    1.9567   -0.6681 H         1 <0>         0.0940
     30 H3         -0.1646    1.8377    1.1077 H         1 <0>         0.0960
     31 H4         -2.0347   -2.3567    0.6530 H         1 <0>         0.1037
     32 H5          2.1332   -0.3982   -0.2214 H         1 <0>         0.4230
     33 H6          3.1213   -2.2795    1.2178 H         1 <0>         0.1233
     34 H7          2.1983   -3.8010    1.1775 H         1 <0>         0.1197
     35 H8          2.2465   -5.2259   -1.1015 H         1 <0>         0.1755
     36 H9          3.8415   -5.1166   -3.1837 H         1 <0>         0.1715
     37 H10         4.4437   -1.5913   -0.9768 H         1 <0>         0.2038
     38 H11         0.0509   -6.1843    3.1446 H         1 <0>         0.1057
     39 H12        -0.9510   -6.3777    1.6862 H         1 <0>         0.0650
     40 H13         0.8228   -6.4622    1.5649 H         1 <0>         0.0621
     41 H14         0.0877   -1.5944   -2.3425 H         1 <0>         0.1333
     42 H15        -0.6054   -2.1594   -4.6359 H         1 <0>         0.1431
     43 H16        -4.2360   -3.8226   -3.1277 H         1 <0>         0.1482
@<TRIPOS>BOND
     1    1    2 1
     2    1   28 1
     3    1   29 1
     4    1   30 1
     5    2    7 1
     6    2    3 2
     7    3    4 1
     8    3   26 1
     9    4    5 1
    10    4   18 1
    11    4   31 1
    12    5    6 2
    13    5   14 1
    14    6    7 1
    15    6    8 1
    16    7   32 1
    17    8    9 1
    18    8   33 1
    19    8   34 1
    20    9   13 1
    21    9   10 1
    22   10   11 2
    23   10   35 1
    24   11   12 1
    25   11   36 1
    26   12   13 2
    27   13   37 1
    28   14   15 2
    29   14   16 1
    30   16   17 1
    31   17   38 1
    32   17   39 1
    33   17   40 1
    34   18   23 ar
    35   18   19 ar
    36   19   20 ar
    37   19   41 1
    38   20   21 ar
    39   20   42 1
    40   21   22 ar
    41   21   25 1
    42   22   23 ar
    43   22   43 1
    44   23   24 1
    45   26   27 3
@<TRIPOS>MOLECULE
CHEMBL1215552__1
   44    46     0     0     0
SMALL
USER_CHARGES

@<TRIPOS>ATOM
      1 C1          0.3000    1.4882    0.1855 C.3       1 <0>        -0.1327
      2 C2          0.1574   -0.0088    0.0873 C.2       1 <0>         0.1982
      3 C3         -1.0668   -0.5578    0.0618 C.2       1 <0>        -0.1185
      4 C4         -1.2574   -2.0441   -0.0442 C.3       1 <0>         0.0717
      5 C5          0.0180   -2.7691    0.2791 C.2       1 <0>        -0.1558
      6 C6          1.2022   -2.1319    0.2962 C.2       1 <0>         0.1317
      7 N1          1.2810   -0.7938    0.0194 N.pl3     1 <0>        -0.6299
      8 C7          2.4572   -2.9015    0.6182 C.3       1 <0>         0.1280
      9 N2          3.1321   -3.2779   -0.6264 N.pl3     1 <0>        -0.4142
     10 C8          2.9307   -4.4258   -1.3445 C.2       1 <0>         0.0366
     11 C9          3.7504   -4.3667   -2.4114 C.2       1 <0>         0.0109
     12 N3          4.4336   -3.2143   -2.3465 N.pl3     1 <0>        -0.4684
     13 C10         4.0647   -2.5546   -1.2826 C.cat     1 <0>         0.2829
     14 C11        -0.0277   -4.1512    0.5722 C.2       1 <0>         0.5088
     15 O1         -0.1279   -4.9616   -0.3301 O.2       1 <0>        -0.4732
     16 O2          0.0400   -4.5720    1.8528 O.3       1 <0>        -0.3465
     17 C12        -0.0119   -5.9826    2.0757 C.3       1 <0>         0.0259
     18 C13        -1.6830   -2.3908   -1.4477 C.ar      1 <0>        -0.0891
     19 C14        -0.8598   -2.0834   -2.5150 C.ar      1 <0>        -0.0593
     20 C15        -1.2489   -2.4007   -3.8024 C.ar      1 <0>        -0.1488
     21 C16        -2.4640   -3.0271   -4.0241 C.ar      1 <0>         0.1258
     22 C17        -3.2879   -3.3353   -2.9554 C.ar      1 <0>        -0.1400
     23 C18        -2.8946   -3.0216   -1.6668 C.ar      1 <0>         0.0056
     24 Cl1        -3.9244   -3.4132   -0.3253 Cl        1 <0>        -0.0418
     25 F1         -2.8451   -3.3367   -5.2827 F         1 <0>        -0.1254
     26 C19        -2.2170    0.2920    0.1379 C.1       1 <0>         0.2470
     27 N4         -3.1294    0.9661    0.1982 N.1       1 <0>        -0.3899
     28 H1          1.3573    1.7530    0.1888 H         1 <0>         0.0837
     29 H2         -0.1893    1.9566   -0.6685 H         1 <0>         0.0965
     30 H3         -0.1649    1.8378    1.1074 H         1 <0>         0.0996
     31 H4         -2.0346   -2.3569    0.6532 H         1 <0>         0.1115
     32 H5          2.1331   -0.3979   -0.2216 H         1 <0>         0.4194
     33 H6          3.1214   -2.2791    1.2178 H         1 <0>         0.1514
     34 H7          2.1986   -3.8006    1.1776 H         1 <0>         0.1477
     35 H8          2.2464   -5.2252   -1.1019 H         1 <0>         0.2229
     36 H9          3.8416   -5.1160   -3.1839 H         1 <0>         0.2276
     37 H10         4.4444   -1.5911   -0.9763 H         1 <0>         0.2613
     38 H11        -0.9503   -6.3777    1.6867 H         1 <0>         0.0709
     39 H12         0.8235   -6.4620    1.5653 H         1 <0>         0.0635
     40 H13         0.0517   -6.1840    3.1450 H         1 <0>         0.1125
     41 H14         0.0876   -1.5946   -2.3425 H         1 <0>         0.1290
     42 H15        -0.6055   -2.1600   -4.6357 H         1 <0>         0.1426
     43 H16        -4.2359   -3.8234   -3.1273 H         1 <0>         0.1528
     44 H17         5.0947   -2.9164   -2.9908 H         1 <0>         0.4674
@<TRIPOS>BOND
     1    1    2 1
     2    1   28 1
     3    1   29 1
     4    1   30 1
     5    2    7 1
     6    2    3 2
     7    3    4 1
     8    3   26 1
     9    4    5 1
    10    4   18 1
    11    4   31 1
    12    5    6 2
    13    5   14 1
    14    6    7 1
    15    6    8 1
    16    7   32 1
    17    8    9 1
    18    8   33 1
    19    8   34 1
    20    9   13 1
    21    9   10 1
    22   10   11 2
    23   10   35 1
    24   11   12 1
    25   11   36 1
    26   12   13 2
    27   12   44 1
    28   13   37 1
    29   14   15 2
    30   14   16 1
    31   16   17 1
    32   17   38 1
    33   17   39 1
    34   17   40 1
    35   18   23 ar
    36   18   19 ar
    37   19   20 ar
    38   19   41 1
    39   20   21 ar
    40   20   42 1
    41   21   22 ar
    42   21   25 1
    43   22   23 ar
    44   22   43 1
    45   23   24 1
    46   26   27 3
@<TRIPOS>MOLECULE
CHEMBL1215552__2
   43    45     0     0     0
SMALL
USER_CHARGES

@<TRIPOS>ATOM
      1 C1          0.3217    1.4910    0.0680 C.3       1 <0>        -0.1316
      2 C2          0.1678   -0.0077    0.0316 C.2       1 <0>         0.2082
      3 C3         -1.0582   -0.5498    0.0914 C.2       1 <0>        -0.1401
      4 C4         -1.2593   -2.0384    0.0673 C.3       1 <0>         0.0807
      5 C5         -0.0189   -2.7357   -0.4145 C.2       1 <0>        -0.1934
      6 C6          1.1692   -2.1066   -0.4538 C.2       1 <0>         0.1645
      7 N1          1.2829   -0.8015   -0.0678 N.pl3     1 <0>        -0.6258
      8 C7          2.3891   -2.8490   -0.9351 C.3       1 <0>         0.1341
      9 N2          2.6313   -2.5288   -2.3440 N.pl3     1 <0>        -0.4633
     10 C8          2.1259   -3.1961   -3.4271 C.2       1 <0>        -0.0431
     11 C9          2.5969   -2.5723   -4.5237 C.2       1 <0>        -0.0235
     12 N3          3.3688   -1.5519   -4.1212 N.2       1 <0>        -0.4851
     13 C10         3.3900   -1.5166   -2.8169 C.2       1 <0>         0.1807
     14 C11        -0.1022   -4.0826   -0.8352 C.2       1 <0>         0.5219
     15 O1         -0.5547   -4.3504   -1.9326 O.2       1 <0>        -0.4809
     16 O2          0.3202   -5.0716   -0.0198 O.3       1 <0>        -0.3474
     17 C12         0.2065   -6.4092   -0.5095 C.3       1 <0>         0.0282
     18 C13        -1.5891   -2.5170    1.4576 C.ar      1 <0>        -0.0882
     19 C14        -0.6941   -2.3088    2.4905 C.ar      1 <0>        -0.0547
     20 C15        -0.9953   -2.7471    3.7658 C.ar      1 <0>        -0.1455
     21 C16        -2.1945   -3.3955    4.0100 C.ar      1 <0>         0.1181
     22 C17        -3.0909   -3.6036    2.9760 C.ar      1 <0>        -0.1444
     23 C18        -2.7900   -3.1594    1.7009 C.ar      1 <0>        -0.0017
     24 Cl1        -3.9161   -3.4145    0.4046 Cl        1 <0>        -0.0465
     25 F1         -2.4890   -3.8250    5.2565 F         1 <0>        -0.1297
     26 C19        -2.2002    0.3096    0.1807 C.1       1 <0>         0.2607
     27 N4         -3.1061    0.9914    0.2515 N.1       1 <0>        -0.4122
     28 H1          1.3788    1.7493    0.0051 H         1 <0>         0.0839
     29 H2         -0.2107    1.9314   -0.7750 H         1 <0>         0.0948
     30 H3         -0.0917    1.8762    1.0001 H         1 <0>         0.0943
     31 H4         -2.0874   -2.2778   -0.5997 H         1 <0>         0.1059
     32 H5          2.1567   -0.4355    0.1408 H         1 <0>         0.4238
     33 H6          3.2533   -2.5514   -0.3412 H         1 <0>         0.1217
     34 H7          2.2272   -3.9216   -0.8289 H         1 <0>         0.1200
     35 H8          1.4748   -4.0576   -3.4062 H         1 <0>         0.1754
     36 H9          2.3895   -2.8457   -5.5477 H         1 <0>         0.1721
     37 H10         3.9274   -0.7986   -2.2152 H         1 <0>         0.2036
     38 H11         0.5802   -7.1044    0.2423 H         1 <0>         0.1059
     39 H12        -0.8394   -6.6309   -0.7214 H         1 <0>         0.0648
     40 H13         0.7921   -6.5127   -1.4230 H         1 <0>         0.0623
     41 H14         0.2413   -1.8035    2.3004 H         1 <0>         0.1378
     42 H15        -0.2955   -2.5845    4.5721 H         1 <0>         0.1447
     43 H16        -4.0261   -4.1094    3.1653 H         1 <0>         0.1489
@<TRIPOS>BOND
     1    1    2 1
     2    1   28 1
     3    1   29 1
     4    1   30 1
     5    2    7 1
     6    2    3 2
     7    3    4 1
     8    3   26 1
     9    4    5 1
    10    4   18 1
    11    4   31 1
    12    5    6 2
    13    5   14 1
    14    6    7 1
    15    6    8 1
    16    7   32 1
    17    8    9 1
    18    8   33 1
    19    8   34 1
    20    9   13 1
    21    9   10 1
    22   10   11 2
    23   10   35 1
    24   11   12 1
    25   11   36 1
    26   12   13 2
    27   13   37 1
    28   14   15 2
    29   14   16 1
    30   16   17 1
    31   17   38 1
    32   17   39 1
    33   17   40 1
    34   18   23 ar
    35   18   19 ar
    36   19   20 ar
    37   19   41 1
    38   20   21 ar
    39   20   42 1
    40   21   22 ar
    41   21   25 1
    42   22   23 ar
    43   22   43 1
    44   23   24 1
    45   26   27 3
@<TRIPOS>MOLECULE
CHEMBL1215552__3
   44    46     0     0     0
SMALL
USER_CHARGES

@<TRIPOS>ATOM
      1 C1          0.3212    1.4910    0.0678 C.3       1 <0>        -0.1317
      2 C2          0.1676   -0.0077    0.0316 C.2       1 <0>         0.1948
      3 C3         -1.0584   -0.5500    0.0913 C.2       1 <0>        -0.1179
      4 C4         -1.2592   -2.0386    0.0673 C.3       1 <0>         0.0730
      5 C5         -0.0186   -2.7357   -0.4144 C.2       1 <0>        -0.1559
      6 C6          1.1693   -2.1065   -0.4537 C.2       1 <0>         0.1324
      7 N1          1.2828   -0.8013   -0.0678 N.pl3     1 <0>        -0.6323
      8 C7          2.3894   -2.8486   -0.9350 C.3       1 <0>         0.1278
      9 N2          2.6316   -2.5284   -2.3439 N.pl3     1 <0>        -0.4135
     10 C8          2.1260   -3.1955   -3.4270 C.2       1 <0>         0.0338
     11 C9          2.5972   -2.5717   -4.5235 C.2       1 <0>         0.0111
     12 N3          3.3694   -1.5515   -4.1210 N.pl3     1 <0>        -0.4698
     13 C10         3.3905   -1.5164   -2.8166 C.cat     1 <0>         0.2886
     14 C11        -0.1017   -4.0827   -0.8350 C.2       1 <0>         0.5112
     15 O1         -0.5542   -4.3506   -1.9325 O.2       1 <0>        -0.4803
     16 O2          0.3209   -5.0715   -0.0196 O.3       1 <0>        -0.3419
     17 C12         0.2074   -6.4092   -0.5093 C.3       1 <0>         0.0255
     18 C13        -1.5890   -2.5172    1.4576 C.ar      1 <0>        -0.1012
     19 C14        -0.6940   -2.3088    2.4905 C.ar      1 <0>        -0.0556
     20 C15        -0.9952   -2.7471    3.7658 C.ar      1 <0>        -0.1454
     21 C16        -2.1943   -3.3957    4.0100 C.ar      1 <0>         0.1275
     22 C17        -3.0906   -3.6040    2.9760 C.ar      1 <0>        -0.1428
     23 C18        -2.7897   -3.1598    1.7009 C.ar      1 <0>         0.0008
     24 Cl1        -3.9158   -3.4151    0.4045 Cl        1 <0>        -0.0432
     25 F1         -2.4888   -3.8252    5.2566 F         1 <0>        -0.1246
     26 C19        -2.2005    0.3092    0.1805 C.1       1 <0>         0.2469
     27 N4         -3.1065    0.9909    0.2513 N.1       1 <0>        -0.3907
     28 H1          1.3783    1.7495    0.0050 H         1 <0>         0.0830
     29 H2         -0.2112    1.9314   -0.7752 H         1 <0>         0.0958
     30 H3         -0.0922    1.8762    0.9999 H         1 <0>         0.0984
     31 H4         -2.0873   -2.2782   -0.5998 H         1 <0>         0.1128
     32 H5          2.1565   -0.4351    0.1408 H         1 <0>         0.4241
     33 H6          3.2535   -2.5509   -0.3410 H         1 <0>         0.1496
     34 H7          2.2276   -3.9213   -0.8288 H         1 <0>         0.1477
     35 H8          1.4747   -4.0567   -3.4061 H         1 <0>         0.2226
     36 H9          2.3896   -2.8449   -5.5476 H         1 <0>         0.2277
     37 H10         3.9281   -0.7985   -2.2149 H         1 <0>         0.2609
     38 H11        -0.8385   -6.6311   -0.7211 H         1 <0>         0.0709
     39 H12         0.7930   -6.5126   -1.4228 H         1 <0>         0.0636
     40 H13         0.5813   -7.1043    0.2425 H         1 <0>         0.1127
     41 H14         0.2413   -1.8034    2.3004 H         1 <0>         0.1365
     42 H15        -0.2954   -2.5843    4.5722 H         1 <0>         0.1474
     43 H16        -4.0258   -4.1100    3.1653 H         1 <0>         0.1525
     44 H17         3.8355   -0.9349   -4.7070 H         1 <0>         0.4673
@<TRIPOS>BOND
     1    1    2 1
     2    1   28 1
     3    1   29 1
     4    1   30 1
     5    2    7 1
     6    2    3 2
     7    3    4 1
     8    3   26 1
     9    4    5 1
    10    4   18 1
    11    4   31 1
    12    5    6 2
    13    5   14 1
    14    6    7 1
    15    6    8 1
    16    7   32 1
    17    8    9 1
    18    8   33 1
    19    8   34 1
    20    9   13 1
    21    9   10 1
    22   10   11 2
    23   10   35 1
    24   11   12 1
    25   11   36 1
    26   12   13 2
    27   12   44 1
    28   13   37 1
    29   14   15 2
    30   14   16 1
    31   16   17 1
    32   17   38 1
    33   17   39 1
    34   17   40 1
    35   18   23 ar
    36   18   19 ar
    37   19   20 ar
    38   19   41 1
    39   20   21 ar
    40   20   42 1
    41   21   22 ar
    42   21   25 1
    43   22   23 ar
    44   22   43 1
    45   23   24 1
    46   26   27 3
@<TRIPOS>MOLECULE
CHEMBL1215553
   65    70     0     0     0
SMALL
USER_CHARGES

@<TRIPOS>ATOM
      1 C1         -0.7466   -0.2595   -0.8343 C.ar      1 <0>        -0.1096
      2 C2          0.2855    0.6576   -0.9011 C.ar      1 <0>        -0.1239
      3 C3          1.5969    0.2303   -0.8080 C.ar      1 <0>        -0.0934
      4 C4          1.8761   -1.1140   -0.6476 C.ar      1 <0>        -0.0963
      5 C5          0.8439   -2.0310   -0.5799 C.ar      1 <0>        -0.0934
      6 C6         -0.4674   -1.6039   -0.6744 C.ar      1 <0>        -0.1239
      7 C7          3.3057   -1.5800   -0.5471 C.3       1 <0>         0.0992
      8 O1          3.7125   -1.5770    0.8227 O.3       1 <0>        -0.3012
      9 C8          4.9829   -1.9732    1.0891 C.ar      1 <0>         0.2210
     10 C9          5.8240   -2.3514    0.0576 C.ar      1 <0>        -0.2662
     11 C10         7.1242   -2.7557    0.3370 C.ar      1 <0>         0.3148
     12 C11         7.5834   -2.7818    1.6527 C.ar      1 <0>        -0.2237
     13 C12         6.7613   -2.4105    2.6775 C.ar      1 <0>         0.0127
     14 C13         5.4521   -1.9958    2.4119 C.ar      1 <0>        -0.1258
     15 C14         4.5916   -1.6007    3.4862 C.1       1 <0>         0.2739
     16 N1          3.9090   -1.2873    4.3384 N.1       1 <0>        -0.4399
     17 N2          7.9698   -3.1359   -0.6999 N.pl3     1 <0>        -0.4635
     18 C15         9.3169   -3.7150   -0.5409 C.3       1 <0>         0.1216
     19 H1          9.9403   -3.0722    0.0805 H         1 <0>         0.0924
     20 C16         9.8539   -3.7654   -1.9739 C.3       1 <0>        -0.1004
     21 H2         10.6650   -3.0516   -2.1177 H         1 <0>         0.1035
     22 C17        10.2736   -5.1737   -2.3966 C.3       1 <0>        -0.2051
     23 C18        10.6894   -5.1532   -3.8660 C.3       1 <0>        -0.0806
     24 C19         9.6659   -4.5233   -4.7675 C.ar      1 <0>        -0.0657
     25 C20         9.7042   -4.7899   -6.1106 C.ar      1 <0>        -0.0903
     26 C21         8.7709   -4.2073   -6.9730 C.ar      1 <0>        -0.1048
     27 C22         7.7878   -3.3438   -6.4747 C.ar      1 <0>        -0.0933
     28 C23         7.7405   -3.0764   -5.1351 C.ar      1 <0>        -0.0914
     29 C24         8.6688   -3.6649   -4.2794 C.ar      1 <0>        -0.0513
     30 C25         8.6393   -3.4075   -2.8237 C.2       1 <0>         0.1547
     31 N3          7.6804   -3.0376   -2.0630 N.2       1 <0>        -0.2447
     32 C26         8.8225   -4.5030   -8.4142 C.2       1 <0>         0.5155
     33 O2          9.6802   -5.2567   -8.8538 O.co2     1 <0>        -0.6839
     34 O3          8.0075   -3.9952   -9.1724 O.co2     1 <0>        -0.6829
     35 C27         9.2320   -5.1211    0.0563 C.3       1 <0>        -0.0957
     36 C28        10.6491   -5.6983    0.2525 C.3       1 <0>        -0.1281
     37 C29        10.4981   -7.2010   -0.0911 C.3       1 <0>        -0.1196
     38 C30         9.5043   -7.1818   -1.2790 C.3       1 <0>        -0.1633
     39 C31         8.5041   -6.0643   -0.9174 C.3       1 <0>        -0.1287
     40 H3         -1.7713    0.0748   -0.9025 H         1 <0>         0.1236
     41 H4          0.0674    1.7079   -1.0263 H         1 <0>         0.1250
     42 H5          2.4033    0.9467   -0.8609 H         1 <0>         0.1249
     43 H6          1.0620   -3.0814   -0.4550 H         1 <0>         0.1249
     44 H7         -1.2739   -2.3204   -0.6219 H         1 <0>         0.1251
     45 H8          3.3877   -2.5901   -0.9483 H         1 <0>         0.0790
     46 H9          3.9475   -0.9091   -1.1182 H         1 <0>         0.0791
     47 H10         5.4707   -2.3328   -0.9629 H         1 <0>         0.1471
     48 H11         8.5946   -3.0977    1.8626 H         1 <0>         0.1332
     49 H12         7.1237   -2.4332    3.6946 H         1 <0>         0.1397
     50 H13        11.1138   -5.5024   -1.7849 H         1 <0>         0.0950
     51 H14         9.4359   -5.8585   -2.2646 H         1 <0>         0.1599
     52 H15        11.6235   -4.5989   -3.9571 H         1 <0>         0.0728
     53 H16        10.8610   -6.1781   -4.1948 H         1 <0>         0.0789
     54 H17        10.4595   -5.4534   -6.5053 H         1 <0>         0.1318
     55 H18         7.0714   -2.8917   -7.1447 H         1 <0>         0.1325
     56 H19         6.9865   -2.4108   -4.7416 H         1 <0>         0.1224
     57 H20         8.7053   -5.0902    1.0101 H         1 <0>         0.0830
     58 H21        11.3534   -5.2202   -0.4283 H         1 <0>         0.0853
     59 H22        10.9720   -5.5739    1.2862 H         1 <0>         0.0658
     60 H23        11.4549   -7.6259   -0.3948 H         1 <0>         0.0695
     61 H24        10.0808   -7.7502    0.7528 H         1 <0>         0.0660
     62 H25        10.0237   -6.9432   -2.2071 H         1 <0>         0.1099
     63 H26         8.9917   -8.1401   -1.3630 H         1 <0>         0.0627
     64 H27         7.6246   -6.4918   -0.4359 H         1 <0>         0.0618
     65 H28         8.2113   -5.5204   -1.8155 H         1 <0>         0.0827
@<TRIPOS>BOND
     1    1    6 ar
     2    1    2 ar
     3    1   40 1
     4    2    3 ar
     5    2   41 1
     6    3    4 ar
     7    3   42 1
     8    4    5 ar
     9    4    7 1
    10    5    6 ar
    11    5   43 1
    12    6   44 1
    13    7    8 1
    14    7   45 1
    15    7   46 1
    16    8    9 1
    17    9   14 ar
    18    9   10 ar
    19   10   11 ar
    20   10   47 1
    21   11   12 ar
    22   11   17 1
    23   12   13 ar
    24   12   48 1
    25   13   14 ar
    26   13   49 1
    27   14   15 1
    28   15   16 3
    29   17   31 1
    30   17   18 1
    31   18   19 1
    32   18   20 1
    33   18   35 1
    34   20   21 1
    35   20   30 1
    36   20   22 1
    37   22   23 1
    38   22   50 1
    39   22   51 1
    40   23   24 1
    41   23   52 1
    42   23   53 1
    43   24   29 ar
    44   24   25 ar
    45   25   26 ar
    46   25   54 1
    47   26   27 ar
    48   26   32 1
    49   27   28 ar
    50   27   55 1
    51   28   29 ar
    52   28   56 1
    53   29   30 1
    54   30   31 2
    55   32   33 2
    56   32   34 1
    57   35   39 1
    58   35   36 1
    59   35   57 1
    60   36   37 1
    61   36   58 1
    62   36   59 1
    63   37   38 1
    64   37   60 1
    65   37   61 1
    66   38   39 1
    67   38   62 1
    68   38   63 1
    69   39   64 1
    70   39   65 1
@<TRIPOS>MOLECULE
CHEMBL1215690
   45    49     0     0     0
SMALL
USER_CHARGES

@<TRIPOS>ATOM
      1 C1         -0.0169    1.3941    0.0097 C.ar      1 <0>        -0.0288
      2 C2          1.1663    2.0969    0.0022 C.ar      1 <0>        -0.1627
      3 C3          2.3816    1.4171   -0.0131 C.ar      1 <0>         0.2597
      4 C4          2.4038    0.0247   -0.0212 C.ar      1 <0>        -0.1774
      5 C5          1.2240   -0.6838   -0.0142 C.ar      1 <0>        -0.0252
      6 C6          0.0021   -0.0041    0.0020 C.ar      1 <0>        -0.0754
      7 C7         -1.2273   -0.7383    0.0098 C.1       1 <0>         0.2563
      8 N1         -2.2026   -1.3208    0.0160 N.1       1 <0>        -0.4239
      9 N2          3.5752    2.1300   -0.0206 N.pl3     1 <0>        -0.4583
     10 C8          4.9236    1.5412   -0.0426 C.3       1 <0>         0.1566
     11 C9          5.8549    2.7696   -0.0426 C.3       1 <0>        -0.1213
     12 C10         4.9057    3.9464   -0.0201 C.2       1 <0>         0.1166
     13 N3          3.6898    3.5186   -0.0148 N.2       1 <0>        -0.2179
     14 C11         5.3087    5.3644   -0.0119 C.ar      1 <0>        -0.0142
     15 C12         6.6648    5.7065   -0.0311 C.ar      1 <0>        -0.0683
     16 C13         7.0418    7.0315   -0.0235 C.ar      1 <0>        -0.0989
     17 C14         6.0762    8.0284    0.0034 C.ar      1 <0>         0.0847
     18 C15         4.7204    7.6953    0.0222 C.ar      1 <0>         0.0368
     19 C16         4.3369    6.3665    0.0093 C.ar      1 <0>        -0.0432
     20 O1          4.0211    8.8568    0.0464 O.3       1 <0>        -0.2323
     21 C17         4.8800    9.8883    0.0434 C.2       1 <0>         0.6398
     22 O2          4.5663   11.0629    0.0617 O.2       1 <0>        -0.4787
     23 N4          6.1436    9.4209    0.0173 N.am      1 <0>        -0.6466
     24 H1          6.9527    9.9559    0.0102 H         1 <0>         0.4461
     25 C18         5.1248    0.7232   -1.2922 C.ar      1 <0>        -0.1187
     26 C19         4.6101    1.1646   -2.4969 C.ar      1 <0>        -0.0644
     27 C20         4.7943    0.4155   -3.6436 C.ar      1 <0>        -0.1499
     28 C21         5.4948   -0.7774   -3.5855 C.ar      1 <0>         0.1092
     29 C22         6.0099   -1.2184   -2.3783 C.ar      1 <0>        -0.1507
     30 C23         5.8289   -0.4651   -1.2339 C.ar      1 <0>        -0.0753
     31 F1          5.6751   -1.5107   -4.7057 F         1 <0>        -0.1359
     32 H2         -0.9590    1.9219    0.0260 H         1 <0>         0.1363
     33 H3          1.1523    3.1768    0.0078 H         1 <0>         0.1418
     34 H4          3.3478   -0.4997   -0.0334 H         1 <0>         0.1335
     35 H5          1.2419   -1.7636   -0.0213 H         1 <0>         0.1359
     36 H6          5.0911    0.9330    0.8463 H         1 <0>         0.1058
     37 H7          6.4863    2.7707    0.8459 H         1 <0>         0.1114
     38 H8          6.4644    2.7873   -0.9461 H         1 <0>         0.1095
     39 H9          7.4167    4.9315   -0.0516 H         1 <0>         0.1476
     40 H10         8.0891    7.2948   -0.0380 H         1 <0>         0.1455
     41 H11         3.2891    6.1049    0.0196 H         1 <0>         0.1520
     42 H12         4.0634    2.0949   -2.5419 H         1 <0>         0.1284
     43 H13         4.3918    0.7604   -4.5846 H         1 <0>         0.1376
     44 H14         6.5561   -2.1489   -2.3317 H         1 <0>         0.1400
     45 H15         6.2344   -0.8067   -0.2930 H         1 <0>         0.1373
@<TRIPOS>BOND
     1    1    6 ar
     2    1    2 ar
     3    1   32 1
     4    2    3 ar
     5    2   33 1
     6    3    4 ar
     7    3    9 1
     8    4    5 ar
     9    4   34 1
    10    5    6 ar
    11    5   35 1
    12    6    7 1
    13    7    8 3
    14    9   13 1
    15    9   10 1
    16   10   11 1
    17   10   25 1
    18   10   36 1
    19   11   12 1
    20   11   37 1
    21   11   38 1
    22   12   13 2
    23   12   14 1
    24   14   19 ar
    25   14   15 ar
    26   15   16 ar
    27   15   39 1
    28   16   17 ar
    29   16   40 1
    30   17   23 1
    31   17   18 ar
    32   18   19 ar
    33   18   20 1
    34   19   41 1
    35   20   21 1
    36   21   22 2
    37   21   23 am
    38   23   24 1
    39   25   30 ar
    40   25   26 ar
    41   26   27 ar
    42   26   42 1
    43   27   28 ar
    44   27   43 1
    45   28   29 ar
    46   28   31 1
    47   29   30 ar
    48   29   44 1
    49   30   45 1
@<TRIPOS>MOLECULE
CHEMBL1215690__1
   45    49     0     0     0
SMALL
USER_CHARGES

@<TRIPOS>ATOM
      1 C1         -0.0169    1.3941    0.0097 C.ar      1 <0>        -0.0288
      2 C2          1.1663    2.0969    0.0022 C.ar      1 <0>        -0.1627
      3 C3          2.3816    1.4171   -0.0131 C.ar      1 <0>         0.2597
      4 C4          2.4038    0.0247   -0.0212 C.ar      1 <0>        -0.1775
      5 C5          1.2240   -0.6838   -0.0142 C.ar      1 <0>        -0.0252
      6 C6          0.0021   -0.0041    0.0020 C.ar      1 <0>        -0.0754
      7 C7         -1.2273   -0.7383    0.0098 C.1       1 <0>         0.2563
      8 N1         -2.2026   -1.3208    0.0160 N.1       1 <0>        -0.4238
      9 N2          3.5752    2.1300   -0.0206 N.pl3     1 <0>        -0.4585
     10 C8          4.9236    1.5412   -0.0426 C.3       1 <0>         0.1566
     11 C9          5.8549    2.7696   -0.0426 C.3       1 <0>        -0.1213
     12 C10         4.9057    3.9464   -0.0201 C.2       1 <0>         0.1166
     13 N3          3.6898    3.5186   -0.0148 N.2       1 <0>        -0.2178
     14 C11         5.3087    5.3644   -0.0119 C.ar      1 <0>        -0.0142
     15 C12         6.6648    5.7065   -0.0311 C.ar      1 <0>        -0.0683
     16 C13         7.0418    7.0315   -0.0235 C.ar      1 <0>        -0.0989
     17 C14         6.0762    8.0284    0.0034 C.ar      1 <0>         0.0847
     18 C15         4.7204    7.6953    0.0222 C.ar      1 <0>         0.0367
     19 C16         4.3369    6.3665    0.0093 C.ar      1 <0>        -0.0432
     20 O1          4.0211    8.8568    0.0464 O.3       1 <0>        -0.2323
     21 C17         4.8800    9.8883    0.0434 C.2       1 <0>         0.6398
     22 O2          4.5663   11.0629    0.0617 O.2       1 <0>        -0.4787
     23 N4          6.1436    9.4209    0.0173 N.am      1 <0>        -0.6466
     24 H1          6.9527    9.9559    0.0102 H         1 <0>         0.4461
     25 C18         5.1551    0.7003    1.1864 C.ar      1 <0>        -0.1186
     26 C19         4.6603    1.1135    2.4093 C.ar      1 <0>        -0.0641
     27 C20         4.8716    0.3429    3.5369 C.ar      1 <0>        -0.1499
     28 C21         5.5792   -0.8433    3.4414 C.ar      1 <0>         0.1092
     29 C22         6.0743   -1.2562    2.2161 C.ar      1 <0>        -0.1508
     30 C23         5.8573   -0.4866    1.0889 C.ar      1 <0>        -0.0754
     31 F1          5.7867   -1.5972    4.5432 F         1 <0>        -0.1359
     32 H2         -0.9590    1.9219    0.0260 H         1 <0>         0.1363
     33 H3          1.1523    3.1768    0.0078 H         1 <0>         0.1418
     34 H4          3.3478   -0.4997   -0.0334 H         1 <0>         0.1335
     35 H5          1.2419   -1.7636   -0.0213 H         1 <0>         0.1359
     36 H6          5.0691    0.9496   -0.9464 H         1 <0>         0.1055
     37 H7          6.4863    2.7707    0.8459 H         1 <0>         0.1095
     38 H8          6.4644    2.7873   -0.9461 H         1 <0>         0.1114
     39 H9          7.4167    4.9315   -0.0516 H         1 <0>         0.1476
     40 H10         8.0891    7.2948   -0.0380 H         1 <0>         0.1455
     41 H11         3.2891    6.1049    0.0196 H         1 <0>         0.1520
     42 H12         4.1086    2.0390    2.4835 H         1 <0>         0.1286
     43 H13         4.4852    0.6661    4.4922 H         1 <0>         0.1377
     44 H14         6.6267   -2.1812    2.1405 H         1 <0>         0.1400
     45 H15         6.2396   -0.8106    0.1322 H         1 <0>         0.1372
@<TRIPOS>BOND
     1    1    6 ar
     2    1    2 ar
     3    1   32 1
     4    2    3 ar
     5    2   33 1
     6    3    4 ar
     7    3    9 1
     8    4    5 ar
     9    4   34 1
    10    5    6 ar
    11    5   35 1
    12    6    7 1
    13    7    8 3
    14    9   13 1
    15    9   10 1
    16   10   11 1
    17   10   25 1
    18   10   36 1
    19   11   12 1
    20   11   37 1
    21   11   38 1
    22   12   13 2
    23   12   14 1
    24   14   19 ar
    25   14   15 ar
    26   15   16 ar
    27   15   39 1
    28   16   17 ar
    29   16   40 1
    30   17   23 1
    31   17   18 ar
    32   18   19 ar
    33   18   20 1
    34   19   41 1
    35   20   21 1
    36   21   22 2
    37   21   23 am
    38   23   24 1
    39   25   30 ar
    40   25   26 ar
    41   26   27 ar
    42   26   42 1
    43   27   28 ar
    44   27   43 1
    45   28   29 ar
    46   28   31 1
    47   29   30 ar
    48   29   44 1
    49   30   45 1
@<TRIPOS>MOLECULE
CHEMBL489788
   43    46     0     0     0
SMALL
USER_CHARGES

@<TRIPOS>ATOM
      1 C1         -1.3942    2.3574   -0.0369 C.3       1 <0>        -0.1908
      2 C2         -1.0201    0.8770    0.0601 C.3       1 <0>         0.2554
      3 C3         -2.2674    0.0643   -0.0999 C.ar      1 <0>        -0.1362
      4 C4         -2.5534   -0.3610   -1.3922 C.ar      1 <0>        -0.0452
      5 C5         -3.6828   -1.1252   -1.6657 C.ar      1 <0>        -0.0446
      6 C6         -4.5421   -1.4689   -0.6187 C.ar      1 <0>        -0.0828
      7 C7         -4.2585   -1.0468    0.6535 C.ar      1 <0>        -0.1554
      8 C8         -3.1184   -0.2719    0.9350 C.ar      1 <0>         0.1942
      9 N1         -2.9672    0.0866    2.2553 N.am      1 <0>        -0.6463
     10 C9         -2.0185    0.6466    2.9572 C.2       1 <0>         0.4969
     11 O1         -2.1423    0.6195    4.1634 O.2       1 <0>        -0.5248
     12 C10        -0.7990    1.3150    2.4222 C.3       1 <0>         0.0497
     13 O2         -0.3296    0.6757    1.2572 O.3       1 <0>        -0.3462
     14 C11        -3.9706   -1.5674   -3.0452 C.2       1 <0>         0.0967
     15 C12        -3.4654   -1.0017   -4.1958 C.2       1 <0>        -0.1769
     16 C13        -3.9813   -1.7126   -5.2786 C.2       1 <0>        -0.1063
     17 C14        -4.7967   -2.7052   -4.7721 C.2       1 <0>         0.0555
     18 N2         -4.7786   -2.6112   -3.3987 N.pl3     1 <0>        -0.4152
     19 C15        -5.5065   -3.4815   -2.4719 C.3       1 <0>         0.0551
     20 C16        -5.5278   -3.6675   -5.5404 C.1       1 <0>         0.2768
     21 N3         -6.1078   -4.4308   -6.1498 N.1       1 <0>        -0.4035
     22 C17        -0.0941    0.5482   -1.0825 C.2       1 <0>        -0.0195
     23 C18         0.9083   -0.3481   -1.0498 C.2       1 <0>        -0.1665
     24 C19         1.5115   -0.3349   -2.3284 C.2       1 <0>        -0.2131
     25 C20         0.8416    0.5687   -3.0660 C.2       1 <0>        -0.0307
     26 O3         -0.1335    1.0963   -2.3080 O.3       1 <0>        -0.1702
     27 H1         -0.4879    2.9628   -0.0223 H         1 <0>         0.0808
     28 H2         -1.9350    2.5353   -0.9664 H         1 <0>         0.0858
     29 H3         -2.0261    2.6286    0.8088 H         1 <0>         0.0690
     30 H4         -1.8864   -0.0935   -2.1983 H         1 <0>         0.1426
     31 H5         -5.4231   -2.0632   -0.8110 H         1 <0>         0.1371
     32 H6         -4.9258   -1.3151    1.4592 H         1 <0>         0.1359
     33 H7         -3.7483   -0.1262    2.7896 H         1 <0>         0.4025
     34 H8         -1.0352    2.3531    2.1882 H         1 <0>         0.1020
     35 H9         -0.0173    1.2910    3.1815 H         1 <0>         0.1489
     36 H10        -2.7914   -0.1595   -4.2491 H         1 <0>         0.1517
     37 H11        -3.7803   -1.5215   -6.3224 H         1 <0>         0.1545
     38 H12        -6.4505   -3.0109   -2.1971 H         1 <0>         0.0861
     39 H13        -5.7045   -4.4394   -2.9527 H         1 <0>         0.0887
     40 H14        -4.9061   -3.6416   -1.5764 H         1 <0>         0.0979
     41 H15         1.1974   -0.9600   -0.2081 H         1 <0>         0.1511
     42 H16         2.3496   -0.9349   -2.6509 H         1 <0>         0.1512
     43 H17         1.0499    0.8238   -4.0946 H         1 <0>         0.2081
@<TRIPOS>BOND
     1    1    2 1
     2    1   27 1
     3    1   28 1
     4    1   29 1
     5    2   13 1
     6    2    3 1
     7    2   22 1
     8    3    8 ar
     9    3    4 ar
    10    4    5 ar
    11    4   30 1
    12    5    6 ar
    13    5   14 1
    14    6    7 ar
    15    6   31 1
    16    7    8 ar
    17    7   32 1
    18    8    9 1
    19    9   10 am
    20    9   33 1
    21   10   11 2
    22   10   12 1
    23   12   13 1
    24   12   34 1
    25   12   35 1
    26   14   18 1
    27   14   15 2
    28   15   16 1
    29   15   36 1
    30   16   17 2
    31   16   37 1
    32   17   18 1
    33   17   20 1
    34   18   19 1
    35   19   38 1
    36   19   39 1
    37   19   40 1
    38   20   21 3
    39   22   26 1
    40   22   23 2
    41   23   24 1
    42   23   41 1
    43   24   25 2
    44   24   42 1
    45   25   26 1
    46   25   43 1
@<TRIPOS>MOLECULE
CHEMBL489788__1
   43    46     0     0     0
SMALL
USER_CHARGES

@<TRIPOS>ATOM
      1 C1         -0.3595    1.3887   -0.0851 C.3       1 <0>        -0.1460
      2 C2         -0.2506   -0.1370   -0.1228 C.3       1 <0>         0.2570
      3 C3          0.2573   -0.5399   -1.4725 C.ar      1 <0>        -0.1378
      4 C4          0.0329    0.3675   -2.5015 C.ar      1 <0>        -0.0511
      5 C5          0.4605    0.1058   -3.7988 C.ar      1 <0>        -0.0465
      6 C6          1.1282   -1.0921   -4.0668 C.ar      1 <0>        -0.0794
      7 C7          1.3471   -1.9848   -3.0508 C.ar      1 <0>        -0.1567
      8 C8          0.9139   -1.7261   -1.7374 C.ar      1 <0>         0.2017
      9 N1          1.1944   -2.7167   -0.8240 N.am      1 <0>        -0.6461
     10 C9          1.1156   -2.8237    0.4755 C.2       1 <0>         0.4994
     11 O1          1.6571   -3.7853    0.9787 O.2       1 <0>        -0.5252
     12 C10         0.4265   -1.8806    1.4007 C.3       1 <0>         0.0486
     13 O2          0.5365   -0.5482    0.9550 O.3       1 <0>        -0.3447
     14 C11         0.2117    1.0813   -4.8795 C.2       1 <0>         0.0964
     15 C12        -0.7451    2.0731   -4.8667 C.2       1 <0>        -0.1785
     16 C13        -0.6487    2.7694   -6.0707 C.2       1 <0>        -0.1062
     17 C14         0.3685    2.1911   -6.8038 C.2       1 <0>         0.0562
     18 N2          0.8947    1.1585   -6.0605 N.pl3     1 <0>        -0.4151
     19 C15         1.9988    0.2865   -6.4688 C.3       1 <0>         0.0550
     20 C16         0.8039    2.5979   -8.1059 C.1       1 <0>         0.2760
     21 N3          1.1493    2.9206   -9.1389 N.1       1 <0>        -0.4029
     22 C17        -1.6321   -0.7133    0.0516 C.2       1 <0>        -0.0660
     23 C18        -2.4540   -1.1003   -0.9404 C.2       1 <0>        -0.1783
     24 C19        -3.6374   -1.5754   -0.3299 C.2       1 <0>        -0.2138
     25 C20        -3.4679   -1.4503    0.9986 C.2       1 <0>        -0.0323
     26 O3         -2.2492   -0.9329    1.2241 O.3       1 <0>        -0.1668
     27 H1          0.6102    1.8281   -0.3188 H         1 <0>         0.0820
     28 H2         -1.0944    1.7187   -0.8193 H         1 <0>         0.0861
     29 H3         -0.6720    1.7061    0.9098 H         1 <0>         0.0789
     30 H4         -0.4831    1.2923   -2.2898 H         1 <0>         0.1482
     31 H5          1.4695   -1.3125   -5.0675 H         1 <0>         0.1370
     32 H6          1.8636   -2.9093   -3.2632 H         1 <0>         0.1356
     33 H7          1.5287   -3.5248   -1.2435 H         1 <0>         0.4017
     34 H8         -0.6279   -2.1494    1.4632 H         1 <0>         0.0994
     35 H9          0.8734   -1.9631    2.3915 H         1 <0>         0.1453
     36 H10        -1.4435    2.2746   -4.0679 H         1 <0>         0.1527
     37 H11        -1.2584    3.6075   -6.3746 H         1 <0>         0.1546
     38 H12         1.5971   -0.6278   -6.9057 H         1 <0>         0.0859
     39 H13         2.6148    0.8013   -7.2060 H         1 <0>         0.0888
     40 H14         2.6057    0.0371   -5.5985 H         1 <0>         0.0981
     41 H15        -2.2494   -1.0561   -1.9999 H         1 <0>         0.1503
     42 H16        -4.5102   -1.9639   -0.8336 H         1 <0>         0.1517
     43 H17        -4.1881   -1.7233    1.7557 H         1 <0>         0.2066
@<TRIPOS>BOND
     1    1    2 1
     2    1   27 1
     3    1   28 1
     4    1   29 1
     5    2   13 1
     6    2    3 1
     7    2   22 1
     8    3    8 ar
     9    3    4 ar
    10    4    5 ar
    11    4   30 1
    12    5    6 ar
    13    5   14 1
    14    6    7 ar
    15    6   31 1
    16    7    8 ar
    17    7   32 1
    18    8    9 1
    19    9   10 am
    20    9   33 1
    21   10   11 2
    22   10   12 1
    23   12   13 1
    24   12   34 1
    25   12   35 1
    26   14   18 1
    27   14   15 2
    28   15   16 1
    29   15   36 1
    30   16   17 2
    31   16   37 1
    32   17   18 1
    33   17   20 1
    34   18   19 1
    35   19   38 1
    36   19   39 1
    37   19   40 1
    38   20   21 3
    39   22   26 1
    40   22   23 2
    41   23   24 1
    42   23   41 1
    43   24   25 2
    44   24   42 1
    45   25   26 1
    46   25   43 1
@<TRIPOS>MOLECULE
CHEMBL386915
   55    57     0     0     0
SMALL
USER_CHARGES

@<TRIPOS>ATOM
      1 C1          0.9469   -0.6264    1.1230 C.3       1 <0>        -0.1535
      2 C2          0.0051   -0.7787   -0.0731 C.3       1 <0>        -0.0127
      3 C3          0.2939   -2.1022   -0.7844 C.3       1 <0>        -0.1354
      4 C4         -1.4450   -0.7677    0.4148 C.3       1 <0>        -0.1538
      5 C5         -1.5794    0.1994    1.5927 C.3       1 <0>         0.0773
      6 C6         -3.0032    0.1313    2.1486 C.3       1 <0>         0.1048
      7 N1         -3.1447    1.0893    3.2479 N.pl3     1 <0>        -0.6308
      8 C7         -2.5465    0.8279    4.5683 C.3       1 <0>         0.0999
      9 C8         -3.5716    1.2451    5.6324 C.3       1 <0>         0.0453
     10 O1         -3.8910    2.6262    5.4480 O.3       1 <0>        -0.3133
     11 C9         -4.2193    3.0384    4.1949 C.ar      1 <0>         0.0625
     12 C10        -3.8501    2.2911    3.0776 C.ar      1 <0>         0.1503
     13 C11        -4.1818    2.7274    1.8052 C.ar      1 <0>        -0.1658
     14 C12        -4.8791    3.9108    1.6426 C.ar      1 <0>        -0.1047
     15 C13        -5.2446    4.6564    2.7475 C.ar      1 <0>        -0.1349
     16 C14        -4.9241    4.2197    4.0239 C.ar      1 <0>        -0.1090
     17 C15        -1.2844    1.6240    1.1192 C.3       1 <0>         0.4668
     18 F1         -2.0957    1.9277    0.0206 F         1 <0>        -0.1717
     19 F2         -1.5483    2.5244    2.1569 F         1 <0>        -0.1629
     20 F3          0.0606    1.7226    0.7470 F         1 <0>        -0.1560
     21 O2         -0.6507   -0.1643    2.6161 O.3       1 <0>        -0.5219
     22 C16         0.2213    0.3642   -1.0314 C.ar      1 <0>        -0.0665
     23 C17        -0.8509    0.9058   -1.7142 C.ar      1 <0>        -0.1333
     24 C18        -0.6527    1.9560   -2.5942 C.ar      1 <0>         0.0691
     25 C19         0.6199    2.4647   -2.7917 C.ar      1 <0>        -0.1218
     26 C20         1.6935    1.9251   -2.1104 C.ar      1 <0>        -0.1780
     27 C21         1.4956    0.8765   -1.2240 C.ar      1 <0>         0.1286
     28 O3          2.5505    0.3481   -0.5486 O.3       1 <0>        -0.2952
     29 C22         3.8341    0.9253   -0.7961 C.3       1 <0>         0.0159
     30 F4         -1.7019    2.4847   -3.2612 F         1 <0>        -0.1400
     31 H1          1.9734   -0.8034    0.8020 H         1 <0>         0.0670
     32 H2          0.8613    0.3825    1.5267 H         1 <0>         0.0943
     33 H3          0.6769   -1.3497    1.8924 H         1 <0>         0.0551
     34 H4          0.0536   -2.9319   -0.1196 H         1 <0>         0.0604
     35 H5         -0.3152   -2.1707   -1.6858 H         1 <0>         0.0547
     36 H6          1.3489   -2.1468   -1.0545 H         1 <0>         0.0637
     37 H7         -2.0987   -0.4460   -0.3959 H         1 <0>         0.0932
     38 H8         -1.7285   -1.7707    0.7340 H         1 <0>         0.0966
     39 H9         -3.7136    0.3766    1.3591 H         1 <0>         0.0990
     40 H10        -3.2020   -0.8754    2.5162 H         1 <0>         0.0940
     41 H11        -2.3206   -0.2337    4.6684 H         1 <0>         0.0897
     42 H12        -1.6344    1.4134    4.6836 H         1 <0>         0.0767
     43 H13        -4.4745    0.6439    5.5255 H         1 <0>         0.0644
     44 H14        -3.1476    1.0976    6.6257 H         1 <0>         0.1143
     45 H15        -3.8967    2.1444    0.9419 H         1 <0>         0.1251
     46 H16        -5.1380    4.2527    0.6514 H         1 <0>         0.1232
     47 H17        -5.7896    5.5796    2.6167 H         1 <0>         0.1260
     48 H18        -5.2118    4.8057    4.8842 H         1 <0>         0.1299
     49 H19        -0.7787   -1.0574    2.9641 H         1 <0>         0.3864
     50 H20        -1.8439    0.5095   -1.5616 H         1 <0>         0.1447
     51 H21         0.7732    3.2835   -3.4790 H         1 <0>         0.1357
     52 H22         2.6861    2.3218   -2.2649 H         1 <0>         0.1365
     53 H23         4.0813    0.8219   -1.8527 H         1 <0>         0.0544
     54 H24         3.8149    1.9819   -0.5292 H         1 <0>         0.0551
     55 H25         4.5851    0.4123   -0.1953 H         1 <0>         0.1004
@<TRIPOS>BOND
     1    1    2 1
     2    1   31 1
     3    1   32 1
     4    1   33 1
     5    2    3 1
     6    2    4 1
     7    2   22 1
     8    3   34 1
     9    3   35 1
    10    3   36 1
    11    4    5 1
    12    4   37 1
    13    4   38 1
    14    5    6 1
    15    5   17 1
    16    5   21 1
    17    6    7 1
    18    6   39 1
    19    6   40 1
    20    7   12 1
    21    7    8 1
    22    8    9 1
    23    8   41 1
    24    8   42 1
    25    9   10 1
    26    9   43 1
    27    9   44 1
    28   10   11 1
    29   11   16 ar
    30   11   12 ar
    31   12   13 ar
    32   13   14 ar
    33   13   45 1
    34   14   15 ar
    35   14   46 1
    36   15   16 ar
    37   15   47 1
    38   16   48 1
    39   17   18 1
    40   17   19 1
    41   17   20 1
    42   21   49 1
    43   22   27 ar
    44   22   23 ar
    45   23   24 ar
    46   23   50 1
    47   24   25 ar
    48   24   30 1
    49   25   26 ar
    50   25   51 1
    51   26   27 ar
    52   26   52 1
    53   27   28 1
    54   28   29 1
    55   29   53 1
    56   29   54 1
    57   29   55 1
@<TRIPOS>MOLECULE
CHEMBL386915__1
   55    57     0     0     0
SMALL
USER_CHARGES

@<TRIPOS>ATOM
      1 C1         -0.2123    0.6758   -1.9436 C.3       1 <0>        -0.1369
      2 C2         -0.3783    0.8439   -0.4319 C.3       1 <0>        -0.0110
      3 C3         -0.6594    2.3130   -0.1100 C.3       1 <0>        -0.1531
      4 C4         -1.5470   -0.0169    0.0517 C.3       1 <0>        -0.1550
      5 C5         -2.1737    0.6241    1.2916 C.3       1 <0>         0.0764
      6 C6         -3.4095   -0.1752    1.7096 C.3       1 <0>         0.1016
      7 N1         -4.0455    0.4742    2.8585 N.pl3     1 <0>        -0.6315
      8 C7         -4.9855    1.5936    2.6771 C.3       1 <0>         0.0975
      9 C8         -4.6685    2.6439    3.7512 C.3       1 <0>         0.0478
     10 O1         -4.7930    2.0373    5.0397 O.3       1 <0>        -0.3139
     11 C9         -4.1614    0.8512    5.2449 C.ar      1 <0>         0.0678
     12 C10        -3.7847    0.0474    4.1702 C.ar      1 <0>         0.1491
     13 C11        -3.1508   -1.1642    4.3931 C.ar      1 <0>        -0.1622
     14 C12        -2.8936   -1.5793    5.6873 C.ar      1 <0>        -0.1045
     15 C13        -3.2681   -0.7868    6.7559 C.ar      1 <0>        -0.1344
     16 C14        -3.8938    0.4313    6.5386 C.ar      1 <0>        -0.1097
     17 C15        -1.1564    0.6251    2.4345 C.3       1 <0>         0.4656
     18 F1         -0.0066    1.3145    2.0347 F         1 <0>        -0.1540
     19 F2         -1.7125    1.2550    3.5531 F         1 <0>        -0.1648
     20 F3         -0.8202   -0.6931    2.7607 F         1 <0>        -0.1713
     21 O2         -2.5547    1.9684    0.9919 O.3       1 <0>        -0.5195
     22 C16         0.8864    0.4104    0.2635 C.ar      1 <0>        -0.0480
     23 C17         0.8875   -0.7242    1.0520 C.ar      1 <0>        -0.1573
     24 C18         2.0492   -1.1230    1.6906 C.ar      1 <0>         0.0751
     25 C19         3.2114   -0.3854    1.5406 C.ar      1 <0>        -0.1272
     26 C20         3.2132    0.7493    0.7530 C.ar      1 <0>        -0.1716
     27 C21         2.0512    1.1469    0.1078 C.ar      1 <0>         0.1164
     28 O3          2.0529    2.2604   -0.6722 O.3       1 <0>        -0.3021
     29 C22         3.2880    2.9699   -0.7872 C.3       1 <0>         0.0210
     30 F4          2.0488   -2.2327    2.4613 F         1 <0>        -0.1392
     31 H1          0.5610    1.3552   -2.3020 H         1 <0>         0.0694
     32 H2          0.0755   -0.3518   -2.1654 H         1 <0>         0.0532
     33 H3         -1.1553    0.9043   -2.4402 H         1 <0>         0.0591
     34 H4         -1.6038    2.6106   -0.5657 H         1 <0>         0.0586
     35 H5         -0.7205    2.4430    0.9705 H         1 <0>         0.0925
     36 H6          0.1458    2.9322   -0.5054 H         1 <0>         0.0596
     37 H7         -2.2955   -0.0897   -0.7373 H         1 <0>         0.0974
     38 H8         -1.1847   -1.0140    0.3019 H         1 <0>         0.0938
     39 H9         -4.1142   -0.2154    0.8789 H         1 <0>         0.0989
     40 H10        -3.1121   -1.1875    1.9831 H         1 <0>         0.0996
     41 H11        -4.8567    2.0279    1.6856 H         1 <0>         0.0920
     42 H12        -6.0096    1.2398    2.7965 H         1 <0>         0.0699
     43 H13        -3.6503    3.0088    3.6161 H         1 <0>         0.0722
     44 H14        -5.3701    3.4740    3.6688 H         1 <0>         0.1120
     45 H15        -2.8577   -1.7831    3.5581 H         1 <0>         0.1219
     46 H16        -2.4001   -2.5238    5.8629 H         1 <0>         0.1234
     47 H17        -3.0650   -1.1139    7.7649 H         1 <0>         0.1258
     48 H18        -4.1846    1.0472    7.3767 H         1 <0>         0.1296
     49 H19        -3.2562    2.0401    0.3302 H         1 <0>         0.3825
     50 H20        -0.0185   -1.3001    1.1704 H         1 <0>         0.1543
     51 H21         4.1169   -0.6972    2.0399 H         1 <0>         0.1358
     52 H22         4.1198    1.3247    0.6365 H         1 <0>         0.1367
     53 H23         3.6088    3.3032    0.1997 H         1 <0>         0.0552
     54 H24         4.0462    2.3128   -1.2131 H         1 <0>         0.0550
     55 H25         3.1509    3.8350   -1.4360 H         1 <0>         0.1008
@<TRIPOS>BOND
     1    1    2 1
     2    1   31 1
     3    1   32 1
     4    1   33 1
     5    2    3 1
     6    2    4 1
     7    2   22 1
     8    3   34 1
     9    3   35 1
    10    3   36 1
    11    4    5 1
    12    4   37 1
    13    4   38 1
    14    5    6 1
    15    5   17 1
    16    5   21 1
    17    6    7 1
    18    6   39 1
    19    6   40 1
    20    7   12 1
    21    7    8 1
    22    8    9 1
    23    8   41 1
    24    8   42 1
    25    9   10 1
    26    9   43 1
    27    9   44 1
    28   10   11 1
    29   11   16 ar
    30   11   12 ar
    31   12   13 ar
    32   13   14 ar
    33   13   45 1
    34   14   15 ar
    35   14   46 1
    36   15   16 ar
    37   15   47 1
    38   16   48 1
    39   17   18 1
    40   17   19 1
    41   17   20 1
    42   21   49 1
    43   22   27 ar
    44   22   23 ar
    45   23   24 ar
    46   23   50 1
    47   24   25 ar
    48   24   30 1
    49   25   26 ar
    50   25   51 1
    51   26   27 ar
    52   26   52 1
    53   27   28 1
    54   28   29 1
    55   29   53 1
    56   29   54 1
    57   29   55 1
@<TRIPOS>MOLECULE
CHEMBL219314
   56    58     0     0     0
SMALL
USER_CHARGES

@<TRIPOS>ATOM
      1 C1          0.6004    0.8722    0.3485 C.3       1 <0>        -0.1495
      2 C2         -0.5636    0.3813   -0.5146 C.3       1 <0>        -0.0138
      3 C3         -0.0492   -0.6390   -1.5321 C.3       1 <0>        -0.1358
      4 C4         -1.6186   -0.2757    0.3777 C.3       1 <0>        -0.1534
      5 C5         -1.6878    0.4642    1.7151 C.3       1 <0>         0.0775
      6 C6         -2.6522   -0.2655    2.6523 C.3       1 <0>         0.0930
      7 N1         -2.6907    0.4222    3.9453 N.pl3     1 <0>        -0.6192
      8 C7         -1.5618    0.3018    4.8756 C.3       1 <0>         0.1405
      9 C8         -2.1038   -0.0383    6.2715 C.3       1 <0>        -0.1840
     10 C9         -3.0827    1.0501    6.6657 C.2       1 <0>         0.4044
     11 O1         -3.0884    1.5157    7.7859 O.2       1 <0>        -0.4572
     12 C10        -4.0247    1.5207    5.6394 C.ar      1 <0>        -0.2411
     13 C11        -3.7916    1.1927    4.2896 C.ar      1 <0>         0.2672
     14 C12        -4.6723    1.6401    3.3139 C.ar      1 <0>        -0.2168
     15 C13        -5.7656    2.4035    3.6708 C.ar      1 <0>        -0.0402
     16 C14        -5.9967    2.7309    4.9982 C.ar      1 <0>        -0.1838
     17 C15        -5.1378    2.2892    5.9876 C.ar      1 <0>        -0.0192
     18 C16        -2.1852    1.8923    1.4827 C.3       1 <0>         0.4649
     19 F1         -3.4163    1.8552    0.8192 F         1 <0>        -0.1706
     20 F2         -2.3382    2.5390    2.7137 F         1 <0>        -0.1649
     21 F3         -1.2558    2.5886    0.7025 F         1 <0>        -0.1530
     22 O2         -0.3873    0.5030    2.3060 O.3       1 <0>        -0.5210
     23 C17        -1.1777    1.5498   -1.2415 C.ar      1 <0>        -0.0599
     24 C18        -2.5359    1.5701   -1.4944 C.ar      1 <0>        -0.1387
     25 C19        -3.1004    2.6436   -2.1617 C.ar      1 <0>         0.0714
     26 C20        -2.3049    3.6982   -2.5771 C.ar      1 <0>        -0.1236
     27 C21        -0.9468    3.6805   -2.3256 C.ar      1 <0>        -0.1757
     28 C22        -0.3807    2.6080   -1.6519 C.ar      1 <0>         0.1265
     29 O3          0.9549    2.5919   -1.3988 O.3       1 <0>        -0.2939
     30 C23         1.7143    3.7151   -1.8503 C.3       1 <0>         0.0150
     31 F4         -4.4286    2.6622   -2.4083 F         1 <0>        -0.1401
     32 H1          1.4274    1.1737   -0.2942 H         1 <0>         0.0672
     33 H2          0.2756    1.7238    0.9463 H         1 <0>         0.0913
     34 H3          0.9274    0.0687    1.0085 H         1 <0>         0.0567
     35 H4          0.3156   -1.5225   -1.0081 H         1 <0>         0.0611
     36 H5         -0.8597   -0.9234   -2.2031 H         1 <0>         0.0552
     37 H6          0.7631   -0.1981   -2.1099 H         1 <0>         0.0635
     38 H7         -2.5903   -0.2293   -0.1139 H         1 <0>         0.0939
     39 H8         -1.3491   -1.3174    0.5523 H         1 <0>         0.0982
     40 H9         -3.6502   -0.2713    2.2140 H         1 <0>         0.1027
     41 H10        -2.3127   -1.2912    2.7963 H         1 <0>         0.1008
     42 H11        -0.8946   -0.4919    4.5395 H         1 <0>         0.0912
     43 H12        -1.0185    1.2460    4.9148 H         1 <0>         0.0739
     44 H13        -2.6136   -1.0014    6.2451 H         1 <0>         0.1040
     45 H14        -1.2830   -0.0737    6.9878 H         1 <0>         0.1047
     46 H15        -4.5019    1.3913    2.2769 H         1 <0>         0.1341
     47 H16        -6.4476    2.7496    2.9083 H         1 <0>         0.1259
     48 H17        -6.8567    3.3286    5.2619 H         1 <0>         0.1260
     49 H18        -5.3193    2.5453    7.0210 H         1 <0>         0.1317
     50 H19        -0.0090   -0.3694    2.4818 H         1 <0>         0.3879
     51 H20        -3.1574    0.7480   -1.1716 H         1 <0>         0.1430
     52 H21        -2.7465    4.5348   -3.0982 H         1 <0>         0.1357
     53 H22        -0.3265    4.5030   -2.6500 H         1 <0>         0.1366
     54 H23         2.7623    3.5755   -1.5849 H         1 <0>         0.1005
     55 H24         1.6224    3.8044   -2.9327 H         1 <0>         0.0544
     56 H25         1.3376    4.6221   -1.3776 H         1 <0>         0.0551
@<TRIPOS>BOND
     1    1    2 1
     2    1   32 1
     3    1   33 1
     4    1   34 1
     5    2    3 1
     6    2    4 1
     7    2   23 1
     8    3   35 1
     9    3   36 1
    10    3   37 1
    11    4    5 1
    12    4   38 1
    13    4   39 1
    14    5    6 1
    15    5   18 1
    16    5   22 1
    17    6    7 1
    18    6   40 1
    19    6   41 1
    20    7   13 1
    21    7    8 1
    22    8    9 1
    23    8   42 1
    24    8   43 1
    25    9   10 1
    26    9   44 1
    27    9   45 1
    28   10   11 2
    29   10   12 1
    30   12   17 ar
    31   12   13 ar
    32   13   14 ar
    33   14   15 ar
    34   14   46 1
    35   15   16 ar
    36   15   47 1
    37   16   17 ar
    38   16   48 1
    39   17   49 1
    40   18   19 1
    41   18   20 1
    42   18   21 1
    43   22   50 1
    44   23   28 ar
    45   23   24 ar
    46   24   25 ar
    47   24   51 1
    48   25   26 ar
    49   25   31 1
    50   26   27 ar
    51   26   52 1
    52   27   28 ar
    53   27   53 1
    54   28   29 1
    55   29   30 1
    56   30   54 1
    57   30   55 1
    58   30   56 1
@<TRIPOS>MOLECULE
CHEMBL219314__1
   56    58     0     0     0
SMALL
USER_CHARGES

@<TRIPOS>ATOM
      1 C1         -0.1532    0.6648   -1.8977 C.3       1 <0>        -0.1371
      2 C2         -0.3631    0.8494   -0.3934 C.3       1 <0>        -0.0109
      3 C3         -0.6471    2.3229   -0.0951 C.3       1 <0>        -0.1539
      4 C4         -1.5495   -0.0014    0.0641 C.3       1 <0>        -0.1548
      5 C5         -2.2095    0.6549    1.2784 C.3       1 <0>         0.0775
      6 C6         -3.4605   -0.1352    1.6681 C.3       1 <0>         0.0899
      7 N1         -4.1271    0.5285    2.7912 N.pl3     1 <0>        -0.6213
      8 C7         -5.0503    1.6424    2.5436 C.3       1 <0>         0.1390
      9 C8         -4.6949    2.8000    3.4878 C.3       1 <0>        -0.1803
     10 C9         -4.7657    2.2767    4.9088 C.2       1 <0>         0.4048
     11 O1         -5.2782    2.9283    5.7945 O.2       1 <0>        -0.4590
     12 C10        -4.1904    0.9496    5.1733 C.ar      1 <0>        -0.2347
     13 C11        -3.8910    0.1013    4.0896 C.ar      1 <0>         0.2667
     14 C12        -3.3549   -1.1564    4.3318 C.ar      1 <0>        -0.2082
     15 C13        -3.1222   -1.5677    5.6287 C.ar      1 <0>        -0.0388
     16 C14        -3.4184   -0.7365    6.6983 C.ar      1 <0>        -0.1841
     17 C15        -3.9448    0.5234    6.4806 C.ar      1 <0>        -0.0183
     18 C16        -1.2263    0.6638    2.4506 C.3       1 <0>         0.4634
     19 F1         -0.0625    1.3448    2.0779 F         1 <0>        -0.1527
     20 F2         -1.8124    1.3069    3.5461 F         1 <0>        -0.1641
     21 F3         -0.9049   -0.6523    2.7997 F         1 <0>        -0.1710
     22 O2         -2.5759    1.9974    0.9539 O.3       1 <0>        -0.5184
     23 C17         0.8785    0.4178    0.3437 C.ar      1 <0>        -0.0486
     24 C18         0.8515   -0.7095    1.1421 C.ar      1 <0>        -0.1573
     25 C19         1.9919   -1.1065    1.8190 C.ar      1 <0>         0.0748
     26 C20         3.1610   -0.3743    1.6974 C.ar      1 <0>        -0.1271
     27 C21         3.1908    0.7531    0.8999 C.ar      1 <0>        -0.1715
     28 C22         2.0502    1.1488    0.2164 C.ar      1 <0>         0.1169
     29 O3          2.0796    2.2550   -0.5732 O.3       1 <0>        -0.3019
     30 C23         3.3202    2.9591   -0.6575 C.3       1 <0>         0.0210
     31 F4          1.9642   -2.2090    2.5994 F         1 <0>        -0.1394
     32 H1          0.6334    1.3373   -2.2400 H         1 <0>         0.0694
     33 H2          0.1366   -0.3662   -2.1003 H         1 <0>         0.0532
     34 H3         -1.0800    0.8920   -2.4244 H         1 <0>         0.0594
     35 H4         -1.5756    2.6199   -0.5827 H         1 <0>         0.0592
     36 H5         -0.7408    2.4641    0.9816 H         1 <0>         0.0929
     37 H6          0.1729    2.9344   -0.4718 H         1 <0>         0.0598
     38 H7         -2.2748   -0.0791   -0.7459 H         1 <0>         0.0984
     39 H8         -1.1993   -0.9975    0.3350 H         1 <0>         0.0943
     40 H9         -4.1407   -0.1812    0.8176 H         1 <0>         0.1038
     41 H10        -3.1755   -1.1458    1.9605 H         1 <0>         0.1034
     42 H11        -4.9553    1.9725    1.5091 H         1 <0>         0.0917
     43 H12        -6.0735    1.3177    2.7328 H         1 <0>         0.0677
     44 H13        -3.6863    3.1540    3.2745 H         1 <0>         0.1119
     45 H14        -5.4079    3.6143    3.3583 H         1 <0>         0.1021
     46 H15        -3.1207   -1.8122    3.5063 H         1 <0>         0.1263
     47 H16        -2.7055   -2.5470    5.8123 H         1 <0>         0.1266
     48 H17        -3.2302   -1.0722    7.7074 H         1 <0>         0.1261
     49 H18        -4.1752    1.1694    7.3148 H         1 <0>         0.1314
     50 H19        -3.2577    2.0650    0.2714 H         1 <0>         0.3839
     51 H20        -0.0598   -1.2810    1.2384 H         1 <0>         0.1543
     52 H21         4.0498   -0.6847    2.2266 H         1 <0>         0.1357
     53 H22         4.1026    1.3241    0.8055 H         1 <0>         0.1366
     54 H23         3.2060    3.8187   -1.3180 H         1 <0>         0.1010
     55 H24         3.6125    3.3004    0.3356 H         1 <0>         0.0553
     56 H25         4.0884    2.2955   -1.0543 H         1 <0>         0.0551
@<TRIPOS>BOND
     1    1    2 1
     2    1   32 1
     3    1   33 1
     4    1   34 1
     5    2    3 1
     6    2    4 1
     7    2   23 1
     8    3   35 1
     9    3   36 1
    10    3   37 1
    11    4    5 1
    12    4   38 1
    13    4   39 1
    14    5    6 1
    15    5   18 1
    16    5   22 1
    17    6    7 1
    18    6   40 1
    19    6   41 1
    20    7   13 1
    21    7    8 1
    22    8    9 1
    23    8   42 1
    24    8   43 1
    25    9   10 1
    26    9   44 1
    27    9   45 1
    28   10   11 2
    29   10   12 1
    30   12   17 ar
    31   12   13 ar
    32   13   14 ar
    33   14   15 ar
    34   14   46 1
    35   15   16 ar
    36   15   47 1
    37   16   17 ar
    38   16   48 1
    39   17   49 1
    40   18   19 1
    41   18   20 1
    42   18   21 1
    43   22   50 1
    44   23   28 ar
    45   23   24 ar
    46   24   25 ar
    47   24   51 1
    48   25   26 ar
    49   25   31 1
    50   26   27 ar
    51   26   52 1
    52   27   28 ar
    53   27   53 1
    54   28   29 1
    55   29   30 1
    56   30   54 1
    57   30   55 1
    58   30   56 1
@<TRIPOS>MOLECULE
CHEMBL65929
   50    54     0     0     0
SMALL
USER_CHARGES

@<TRIPOS>ATOM
      1 C1         -0.1808    2.0490    0.2015 C.3       1 <0>        -0.1315
      2 C2         -0.2837    0.5659   -0.0596 C.2       1 <0>        -0.0538
      3 C3         -0.5176    0.1904   -1.3165 C.2       1 <0>        -0.1606
      4 C4         -0.7297   -1.2405   -1.7144 C.3       1 <0>         0.2151
      5 N1         -0.2067   -2.1503   -0.6971 N.pl3     1 <0>        -0.7322
      6 C5         -0.2018   -1.7944    0.6464 C.ar      1 <0>         0.2275
      7 C6         -0.1309   -0.4279    1.0089 C.ar      1 <0>        -0.0334
      8 C7          0.1430   -0.1332    2.3387 C.ar      1 <0>        -0.0356
      9 C8         -0.1521   -1.1159    3.3342 C.ar      1 <0>        -0.0897
     10 C9         -0.3194   -2.4345    2.9646 C.ar      1 <0>        -0.0536
     11 C10        -0.2854   -2.7736    1.6223 C.ar      1 <0>        -0.1733
     12 C11        -0.2711   -0.6481    4.7328 C.ar      1 <0>        -0.0626
     13 C12        -0.5592   -1.5412    5.7602 C.ar      1 <0>        -0.1171
     14 C13        -0.6712   -1.0838    7.0614 C.ar      1 <0>         0.0843
     15 C14        -0.5008    0.2613    7.3435 C.ar      1 <0>        -0.1216
     16 C15        -0.2116    1.1561    6.3290 C.ar      1 <0>        -0.0981
     17 C16        -0.0889    0.7108    5.0241 C.ar      1 <0>         0.1015
     18 O1          0.2197    1.5932    4.0319 O.3       1 <0>        -0.2282
     19 C17         0.7816    1.0594    2.8964 C.2       1 <0>         0.1962
     20 C18         1.9264    1.5788    2.3916 C.2       1 <0>        -0.1759
     21 S1          2.8265    0.7491    1.1111 S.3       1 <0>        -0.0748
     22 C19         3.1074    2.0700   -0.1042 C.3       1 <0>        -0.1248
     23 C20         3.8412    3.2321    0.5578 C.3       1 <0>        -0.1268
     24 C21         2.9028    4.0348    1.4536 C.3       1 <0>        -0.1132
     25 S2          2.5767    3.1174    2.9815 S.3       1 <0>        -0.1018
     26 F1         -0.9453   -1.9522    8.0597 F         1 <0>        -0.1350
     27 C22        -2.2300   -1.4960   -1.9008 C.3       1 <0>        -0.1607
     28 C23        -0.0155   -1.5053   -3.0450 C.3       1 <0>        -0.1546
     29 H1          0.7682    2.2667    0.6915 H         1 <0>         0.0689
     30 H2         -0.2339    2.5888   -0.7439 H         1 <0>         0.0677
     31 H3         -1.0025    2.3624    0.8454 H         1 <0>         0.0719
     32 H4         -0.5523    0.9592   -2.0819 H         1 <0>         0.1262
     33 H5          0.1463   -3.0239   -0.9645 H         1 <0>         0.4058
     34 H6         -0.4755   -3.1990    3.7106 H         1 <0>         0.1348
     35 H7         -0.3243   -3.8136    1.3307 H         1 <0>         0.1318
     36 H8         -0.6960   -2.5904    5.5446 H         1 <0>         0.1442
     37 H9         -0.5944    0.6134    8.3597 H         1 <0>         0.1482
     38 H10        -0.0825    2.2044    6.5557 H         1 <0>         0.1491
     39 H11         3.7084    1.6835   -0.9273 H         1 <0>         0.1169
     40 H12         2.1489    2.4185   -0.4888 H         1 <0>         0.0938
     41 H13         4.6619    2.8408    1.1591 H         1 <0>         0.0917
     42 H14         4.2452    3.8865   -0.2145 H         1 <0>         0.0887
     43 H15         3.3640    4.9922    1.6961 H         1 <0>         0.1203
     44 H16         1.9626    4.2084    0.9303 H         1 <0>         0.0874
     45 H17        -2.6164   -0.8389   -2.6800 H         1 <0>         0.0668
     46 H18        -2.3885   -2.5349   -2.1900 H         1 <0>         0.0620
     47 H19        -2.7517   -1.2957   -0.9649 H         1 <0>         0.0571
     48 H20         1.0510   -1.3121   -2.9297 H         1 <0>         0.0637
     49 H21        -0.1669   -2.5442   -3.3382 H         1 <0>         0.0639
     50 H22        -0.4229   -0.8480   -3.8132 H         1 <0>         0.0734
@<TRIPOS>BOND
     1    1    2 1
     2    1   29 1
     3    1   30 1
     4    1   31 1
     5    2    7 1
     6    2    3 2
     7    3    4 1
     8    3   32 1
     9    4    5 1
    10    4   27 1
    11    4   28 1
    12    5    6 1
    13    5   33 1
    14    6   11 ar
    15    6    7 ar
    16    7    8 ar
    17    8   19 1
    18    8    9 ar
    19    9   10 ar
    20    9   12 1
    21   10   11 ar
    22   10   34 1
    23   11   35 1
    24   12   17 ar
    25   12   13 ar
    26   13   14 ar
    27   13   36 1
    28   14   15 ar
    29   14   26 1
    30   15   16 ar
    31   15   37 1
    32   16   17 ar
    33   16   38 1
    34   17   18 1
    35   18   19 1
    36   19   20 2
    37   20   25 1
    38   20   21 1
    39   21   22 1
    40   22   23 1
    41   22   39 1
    42   22   40 1
    43   23   24 1
    44   23   41 1
    45   23   42 1
    46   24   25 1
    47   24   43 1
    48   24   44 1
    49   27   45 1
    50   27   46 1
    51   27   47 1
    52   28   48 1
    53   28   49 1
    54   28   50 1
@<TRIPOS>MOLECULE
CHEMBL235209
   46    49     0     0     0
SMALL
USER_CHARGES

@<TRIPOS>ATOM
      1 C1         -0.0511    1.5237   -0.0609 C.3       1 <0>        -0.1435
      2 C2          0.0021   -0.0041    0.0020 C.3       1 <0>         0.0960
      3 C3          0.6884   -0.4309    1.2740 C.ar      1 <0>        -0.0546
      4 C4          1.7620   -1.3002    1.2213 C.ar      1 <0>        -0.0836
      5 C5          2.3924   -1.6920    2.3870 C.ar      1 <0>        -0.1550
      6 C6          1.9484   -1.2134    3.6081 C.ar      1 <0>         0.0834
      7 C7          0.8730   -0.3427    3.6596 C.ar      1 <0>        -0.1545
      8 C8          0.2475    0.0517    2.4921 C.ar      1 <0>        -0.0792
      9 F1          2.5636   -1.5960    4.7484 F         1 <0>        -0.1480
     10 C9         -1.3996   -0.5570   -0.0224 C.2       1 <0>        -0.1828
     11 C10        -2.5363    0.1523   -0.1097 C.2       1 <0>         0.0430
     12 N1         -3.6129   -0.6909   -0.1045 N.pl3     1 <0>        -0.5716
     13 H1         -4.5402   -0.4114   -0.1588 H         1 <0>         0.4128
     14 C11        -3.1834   -1.9974   -0.0112 C.ar      1 <0>         0.0569
     15 C12        -1.7797   -1.9702    0.0383 C.ar      1 <0>        -0.0530
     16 C13        -1.0609   -3.1656    0.1304 C.ar      1 <0>        -0.1898
     17 C14        -1.7256   -4.3588    0.1687 C.ar      1 <0>        -0.0720
     18 C15        -3.1115   -4.3970    0.1170 C.ar      1 <0>        -0.2788
     19 C16        -3.8455   -3.2264    0.0332 C.ar      1 <0>         0.2923
     20 N2         -5.2420   -3.2748   -0.0207 N.2       1 <0>        -1.1118
     21 S1         -6.0225   -4.7344    0.0322 S.o2      1 <0>         2.5317
     22 O1         -5.6123   -5.4080   -1.1498 O.2       1 <0>        -1.0291
     23 O2         -5.7123   -5.2652    1.3133 O.2       1 <0>        -1.0291
     24 C17        -7.7867   -4.3232   -0.0632 C.3       1 <0>        -0.6398
     25 C18         0.7816   -0.5372   -1.2017 C.3       1 <0>        -0.1308
     26 C19         1.1611    0.4620   -2.2964 C.3       1 <0>        -0.1819
     27 C20         2.2360   -0.0881   -1.3567 C.3       1 <0>        -0.1865
     28 H2          0.9627    1.9236   -0.0432 H         1 <0>         0.0561
     29 H3         -0.5475    1.8324   -0.9809 H         1 <0>         0.0648
     30 H4         -0.6065    1.9035    0.7967 H         1 <0>         0.0586
     31 H5          2.1079   -1.6737    0.2688 H         1 <0>         0.1377
     32 H6          3.2309   -2.3714    2.3457 H         1 <0>         0.1288
     33 H7          0.5256    0.0309    4.6115 H         1 <0>         0.1284
     34 H8         -0.5885    0.7343    2.5317 H         1 <0>         0.1281
     35 H9         -2.5921    1.2290   -0.1741 H         1 <0>         0.1537
     36 H10         0.0181   -3.1460    0.1708 H         1 <0>         0.0979
     37 H11        -1.1671   -5.2804    0.2395 H         1 <0>         0.0969
     38 H12        -3.6224   -5.3480    0.1483 H         1 <0>         0.1004
     39 H13        -7.9863   -3.7928   -0.9943 H         1 <0>         0.1133
     40 H14        -8.3756   -5.2400   -0.0340 H         1 <0>         0.1003
     41 H15        -8.0584   -3.6898    0.7812 H         1 <0>         0.1133
     42 H16         0.5327   -1.5524   -1.5108 H         1 <0>         0.1123
     43 H17         1.1618    0.1043   -3.3261 H         1 <0>         0.0882
     44 H18         0.8555    1.4992   -2.1591 H         1 <0>         0.0977
     45 H19         2.6374    0.5872   -0.6012 H         1 <0>         0.0925
     46 H20         2.9438   -0.8076   -1.7682 H         1 <0>         0.0903
@<TRIPOS>BOND
     1    1    2 1
     2    1   28 1
     3    1   29 1
     4    1   30 1
     5    2    3 1
     6    2   10 1
     7    2   25 1
     8    3    8 ar
     9    3    4 ar
    10    4    5 ar
    11    4   31 1
    12    5    6 ar
    13    5   32 1
    14    6    7 ar
    15    6    9 1
    16    7    8 ar
    17    7   33 1
    18    8   34 1
    19   10   15 1
    20   10   11 2
    21   11   12 1
    22   11   35 1
    23   12   13 1
    24   12   14 1
    25   14   19 ar
    26   14   15 ar
    27   15   16 ar
    28   16   17 ar
    29   16   36 1
    30   17   18 ar
    31   17   37 1
    32   18   19 ar
    33   18   38 1
    34   19   20 1
    35   20   21 1
    36   21   22 2
    37   21   23 2
    38   21   24 1
    39   24   39 1
    40   24   40 1
    41   24   41 1
    42   25   27 1
    43   25   26 1
    44   25   42 1
    45   26   27 1
    46   26   43 1
    47   26   44 1
    48   27   45 1
    49   27   46 1
@<TRIPOS>MOLECULE
CHEMBL235209__1
   47    50     0     0     0
SMALL
USER_CHARGES

@<TRIPOS>ATOM
      1 C1         -0.0337    1.4979   -0.3356 C.3       1 <0>        -0.1488
      2 C2          0.0158   -0.0288   -0.2472 C.3       1 <0>         0.0905
      3 C3          0.7269   -0.4359    1.0175 C.ar      1 <0>        -0.0703
      4 C4          1.7969   -1.3093    0.9577 C.ar      1 <0>        -0.0854
      5 C5          2.4501   -1.6830    2.1169 C.ar      1 <0>        -0.1533
      6 C6          2.0324   -1.1824    3.3384 C.ar      1 <0>         0.0936
      7 C7          0.9607   -0.3078    3.3970 C.ar      1 <0>        -0.1537
      8 C8          0.3124    0.0686    2.2360 C.ar      1 <0>        -0.0801
      9 F1          2.6699   -1.5474    4.4722 F         1 <0>        -0.1420
     10 C9         -1.3879   -0.5769   -0.2331 C.2       1 <0>        -0.1504
     11 C10        -2.5215    0.1273   -0.3799 C.2       1 <0>         0.0617
     12 N1         -3.6013   -0.7091   -0.3123 N.pl3     1 <0>        -0.5914
     13 H1         -4.5274   -0.4315   -0.3918 H         1 <0>         0.4159
     14 C11        -3.1771   -2.0057   -0.1150 C.ar      1 <0>         0.0811
     15 C12        -1.7735   -1.9797   -0.0628 C.ar      1 <0>        -0.0709
     16 C13        -1.0595   -3.1666    0.1256 C.ar      1 <0>        -0.0796
     17 C14        -1.7288   -4.3508    0.2553 C.ar      1 <0>        -0.1172
     18 C15        -3.1147   -4.3880    0.2018 C.ar      1 <0>        -0.1540
     19 C16        -3.8440   -3.2251    0.0236 C.ar      1 <0>         0.1381
     20 N2         -5.2404   -3.2727   -0.0313 N.pl3     1 <0>        -1.0563
     21 S1         -6.0696   -4.3553    0.9083 S.o2      1 <0>         2.6093
     22 O1         -7.4404   -4.0659    0.6711 O.2       1 <0>        -0.9524
     23 O2         -5.5270   -5.6231    0.5654 O.2       1 <0>        -0.9446
     24 C17        -5.6267   -3.9268    2.6144 C.3       1 <0>        -0.6676
     25 C18         0.7685   -0.5855   -1.4574 C.3       1 <0>        -0.1415
     26 C19         1.1286    0.3932   -2.5769 C.3       1 <0>        -0.1790
     27 C20         2.2208   -0.1444   -1.6502 C.3       1 <0>        -0.1800
     28 H2          0.9816    1.8944   -0.3459 H         1 <0>         0.0650
     29 H3         -0.5480    1.7924   -1.2504 H         1 <0>         0.0673
     30 H4         -0.5699    1.8945    0.5265 H         1 <0>         0.0615
     31 H5          2.1223   -1.6999    0.0049 H         1 <0>         0.1397
     32 H6          3.2857   -2.3656    2.0700 H         1 <0>         0.1338
     33 H7          0.6338    0.0830    4.3493 H         1 <0>         0.1321
     34 H8         -0.5208    0.7543    2.2810 H         1 <0>         0.1280
     35 H9         -2.5730    1.1957   -0.5290 H         1 <0>         0.1716
     36 H10         0.0194   -3.1477    0.1682 H         1 <0>         0.1242
     37 H11        -1.1740   -5.2659    0.4003 H         1 <0>         0.1304
     38 H12        -3.6293   -5.3319    0.3060 H         1 <0>         0.1633
     39 H13        -5.7234   -2.6716   -0.6198 H         1 <0>         0.4218
     40 H14        -5.9281   -2.8999    2.8210 H         1 <0>         0.1293
     41 H15        -6.1372   -4.6007    3.3024 H         1 <0>         0.1352
     42 H16        -4.5488   -4.0224    2.7449 H         1 <0>         0.1326
     43 H17         0.5100   -1.6050   -1.7435 H         1 <0>         0.1083
     44 H18         1.1068    0.0178   -3.6000 H         1 <0>         0.0920
     45 H19         0.8292    1.4338   -2.4513 H         1 <0>         0.1006
     46 H20         2.6400    0.5425   -0.9149 H         1 <0>         0.0964
     47 H21         2.9177   -0.8735   -2.0635 H         1 <0>         0.0952
@<TRIPOS>BOND
     1    1    2 1
     2    1   28 1
     3    1   29 1
     4    1   30 1
     5    2    3 1
     6    2   10 1
     7    2   25 1
     8    3    8 ar
     9    3    4 ar
    10    4    5 ar
    11    4   31 1
    12    5    6 ar
    13    5   32 1
    14    6    7 ar
    15    6    9 1
    16    7    8 ar
    17    7   33 1
    18    8   34 1
    19   10   15 1
    20   10   11 2
    21   11   12 1
    22   11   35 1
    23   12   13 1
    24   12   14 1
    25   14   19 ar
    26   14   15 ar
    27   15   16 ar
    28   16   17 ar
    29   16   36 1
    30   17   18 ar
    31   17   37 1
    32   18   19 ar
    33   18   38 1
    34   19   20 1
    35   20   21 1
    36   20   39 1
    37   21   22 2
    38   21   23 2
    39   21   24 1
    40   24   40 1
    41   24   41 1
    42   24   42 1
    43   25   27 1
    44   25   26 1
    45   25   43 1
    46   26   27 1
    47   26   44 1
    48   26   45 1
    49   27   46 1
    50   27   47 1
@<TRIPOS>MOLECULE
CHEMBL302362
   54    58     0     0     0
SMALL
USER_CHARGES

@<TRIPOS>ATOM
      1 C1         -0.5779    1.2887   -0.0358 C.3       1 <0>        -0.1192
      2 C2          0.0100   -0.0984    0.0043 C.ar      1 <0>        -0.0715
      3 C3          0.2721   -0.7724   -1.1698 C.ar      1 <0>        -0.1254
      4 C4          0.8114   -2.0464   -1.1350 C.ar      1 <0>        -0.1116
      5 C5          1.0924   -2.6542    0.0765 C.ar      1 <0>        -0.1301
      6 C6          0.8362   -1.9938    1.2591 C.ar      1 <0>        -0.0940
      7 C7          0.2964   -0.7033    1.2324 C.ar      1 <0>        -0.0560
      8 C8          0.0255    0.0110    2.4894 C.2       1 <0>        -0.1069
      9 C9         -0.0558   -0.6708    3.6465 C.2       1 <0>         0.0981
     10 C10        -0.1907   -0.0415    4.9647 C.ar      1 <0>        -0.0175
     11 C11        -1.1850   -0.6389    5.7939 C.ar      1 <0>        -0.0939
     12 C12        -1.6965    0.0651    6.8691 C.ar      1 <0>        -0.0505
     13 C13        -1.1678    1.3014    7.1917 C.ar      1 <0>        -0.1907
     14 C14        -0.0481    1.7842    6.5243 C.ar      1 <0>         0.2318
     15 C15         0.5127    1.0518    5.4594 C.ar      1 <0>        -0.0832
     16 C16         1.8486    1.4534    4.9943 C.2       1 <0>        -0.0549
     17 C17         2.4004    2.5861    5.4147 C.2       1 <0>        -0.1698
     18 C18         1.7489    3.5229    6.3838 C.3       1 <0>         0.2152
     19 N1          0.4822    3.0136    6.8972 N.pl3     1 <0>        -0.7253
     20 C19         1.5086    4.8733    5.6936 C.3       1 <0>        -0.1588
     21 C20         2.7042    3.7498    7.5683 C.3       1 <0>        -0.1604
     22 C21         2.6656    0.5747    4.0770 C.3       1 <0>        -0.1163
     23 C22        -1.5924   -2.0202    5.4617 C.ar      1 <0>        -0.0937
     24 C23        -2.5686   -2.6751    6.2087 C.ar      1 <0>        -0.0824
     25 C24        -2.9288   -3.9677    5.8858 C.ar      1 <0>        -0.1408
     26 C25        -2.3257   -4.6149    4.8192 C.ar      1 <0>        -0.0887
     27 C26        -1.3622   -3.9712    4.0673 C.ar      1 <0>        -0.1353
     28 C27        -0.9863   -2.6746    4.3797 C.ar      1 <0>         0.1135
     29 O1         -0.0375   -2.0456    3.6382 O.3       1 <0>        -0.2424
     30 H1          0.2266    2.0234   -0.0690 H         1 <0>         0.0722
     31 H2         -1.2022    1.3932   -0.9232 H         1 <0>         0.0684
     32 H3         -1.1832    1.4527    0.8557 H         1 <0>         0.0673
     33 H4          0.0557   -0.3049   -2.1190 H         1 <0>         0.1220
     34 H5          1.0138   -2.5693   -2.0581 H         1 <0>         0.1208
     35 H6          1.5133   -3.6487    0.0953 H         1 <0>         0.1216
     36 H7          1.0556   -2.4695    2.2035 H         1 <0>         0.1410
     37 H8         -0.1082    1.0826    2.4836 H         1 <0>         0.1439
     38 H9         -2.5061   -0.3441    7.4547 H         1 <0>         0.1312
     39 H10        -1.6277    1.9013    7.9623 H         1 <0>         0.1287
     40 H11         3.3844    2.8411    5.0268 H         1 <0>         0.1280
     41 H12        -0.0257    3.5662    7.5352 H         1 <0>         0.4048
     42 H13         0.8594    4.7295    4.8299 H         1 <0>         0.0602
     43 H14         1.0342    5.5602    6.3944 H         1 <0>         0.0608
     44 H15         2.4618    5.2888    5.3665 H         1 <0>         0.0701
     45 H16         3.6367    4.1821    7.2053 H         1 <0>         0.0694
     46 H17         2.2419    4.4310    8.2826 H         1 <0>         0.0609
     47 H18         2.9109    2.7972    8.0561 H         1 <0>         0.0596
     48 H19         2.4398    0.8228    3.0399 H         1 <0>         0.0739
     49 H20         3.7264    0.7383    4.2669 H         1 <0>         0.0672
     50 H21         2.4204   -0.4711    4.2621 H         1 <0>         0.0671
     51 H22        -3.0492   -2.1735    7.0350 H         1 <0>         0.1287
     52 H23        -3.6801   -4.4796    6.4682 H         1 <0>         0.1279
     53 H24        -2.6076   -5.6287    4.5764 H         1 <0>         0.1319
     54 H25        -0.9037   -4.4778    3.2315 H         1 <0>         0.1332
@<TRIPOS>BOND
     1    1    2 1
     2    1   30 1
     3    1   31 1
     4    1   32 1
     5    2    7 ar
     6    2    3 ar
     7    3    4 ar
     8    3   33 1
     9    4    5 ar
    10    4   34 1
    11    5    6 ar
    12    5   35 1
    13    6    7 ar
    14    6   36 1
    15    7    8 1
    16    8    9 2
    17    8   37 1
    18    9   29 1
    19    9   10 1
    20   10   15 ar
    21   10   11 ar
    22   11   12 ar
    23   11   23 1
    24   12   13 ar
    25   12   38 1
    26   13   14 ar
    27   13   39 1
    28   14   19 1
    29   14   15 ar
    30   15   16 1
    31   16   17 2
    32   16   22 1
    33   17   18 1
    34   17   40 1
    35   18   19 1
    36   18   20 1
    37   18   21 1
    38   19   41 1
    39   20   42 1
    40   20   43 1
    41   20   44 1
    42   21   45 1
    43   21   46 1
    44   21   47 1
    45   22   48 1
    46   22   49 1
    47   22   50 1
    48   23   28 ar
    49   23   24 ar
    50   24   25 ar
    51   24   51 1
    52   25   26 ar
    53   25   52 1
    54   26   27 ar
    55   26   53 1
    56   27   28 ar
    57   27   54 1
    58   28   29 1
@<TRIPOS>MOLECULE
CHEMBL237122
   60    65     0     0     0
SMALL
USER_CHARGES

@<TRIPOS>ATOM
      1 C1         -0.0014    1.5485   -0.3464 C.3       1 <0>        -0.1586
      2 C2          0.0089    0.0186   -0.3590 C.3       1 <0>        -0.0184
      3 C3         -1.4223   -0.4346   -0.5103 C.3       1 <0>        -0.1067
      4 C4         -1.6721   -1.7965    0.1367 C.3       1 <0>        -0.1646
      5 C5         -1.2356   -1.7027    1.5864 C.2       1 <0>         0.3917
      6 O1         -1.9652   -2.0292    2.4992 O.2       1 <0>        -0.4572
      7 C6          0.1230   -1.1936    1.8206 C.2       1 <0>        -0.2183
      8 C7          0.6944   -0.4271    0.8974 C.2       1 <0>        -0.0237
      9 C8          2.1339    0.0151    1.0979 C.3       1 <0>        -0.0854
     10 C9          2.9280   -0.3923   -0.1484 C.3       1 <0>        -0.0699
     11 H1          3.9428   -0.0013   -0.0750 H         1 <0>         0.1140
     12 C10         2.2557    0.1715   -1.4021 C.3       1 <0>        -0.0677
     13 C11         0.8580   -0.4128   -1.5611 C.3       1 <0>        -0.0695
     14 C12         0.2135    0.1076   -2.8432 C.3       1 <0>         0.0051
     15 H2         -0.7474    0.6067   -2.7177 H         1 <0>         0.1312
     16 C13         1.0796    0.5380   -4.0099 C.3       1 <0>         0.0116
     17 H3          0.6556    1.3086   -4.6537 H         1 <0>         0.1215
     18 O2          0.3899   -0.7101   -4.0108 O.3       1 <0>        -0.3421
     19 C14         2.5921    0.5651   -3.9093 C.3       1 <0>        -0.0224
     20 C15         3.1205   -0.0325   -2.6104 C.3       1 <0>        -0.0802
     21 C16         3.3525   -1.5245   -2.9321 C.3       1 <0>        -0.1382
     22 C17         3.9409   -1.4543   -4.3698 C.3       1 <0>        -0.1347
     23 C18         3.1690   -0.3013   -5.0420 C.3       1 <0>         0.1119
     24 C19         2.0445   -0.8105   -5.9639 C.3       1 <0>        -0.1367
     25 C20         2.8271   -0.9936   -7.2916 C.3       1 <0>        -0.1904
     26 C21         4.0808   -0.1611   -7.0972 C.2       1 <0>         0.4796
     27 O3          4.9928   -0.0730   -7.8849 O.2       1 <0>        -0.4495
     28 O4          4.0139    0.4654   -5.9038 O.3       1 <0>        -0.3272
     29 C22         3.0966    2.0030   -4.0455 C.3       1 <0>        -0.1326
     30 C23         2.9764   -1.8956   -0.2418 C.2       1 <0>         0.4632
     31 O5          1.9500   -2.5313   -0.2893 O.2       1 <0>        -0.4855
     32 O6          4.1597   -2.5285   -0.2721 O.3       1 <0>        -0.3532
     33 C24         4.1308   -3.9544   -0.3612 C.3       1 <0>         0.0308
     34 H4          1.0122    1.9173   -0.1896 H         1 <0>         0.0680
     35 H5         -0.3787    1.9172   -1.3003 H         1 <0>         0.0681
     36 H6         -0.6450    1.9009    0.4596 H         1 <0>         0.0635
     37 H7         -2.0772    0.3025   -0.0458 H         1 <0>         0.0746
     38 H8         -1.6622   -0.4984   -1.5717 H         1 <0>         0.0844
     39 H9         -2.7330   -2.0414    0.0850 H         1 <0>         0.0910
     40 H10        -1.0897   -2.5620   -0.3761 H         1 <0>         0.1033
     41 H11         0.6539   -1.4481    2.7260 H         1 <0>         0.1334
     42 H12         2.1735    1.0972    1.2233 H         1 <0>         0.1055
     43 H13         2.5513   -0.4745    1.9778 H         1 <0>         0.0878
     44 H14         2.1362    1.2453   -1.2579 H         1 <0>         0.1017
     45 H15         0.9188   -1.5006   -1.5934 H         1 <0>         0.1184
     46 H16         4.0967    0.4078   -2.4071 H         1 <0>         0.0891
     47 H17         4.0688   -1.9658   -2.2391 H         1 <0>         0.0880
     48 H18         2.4124   -2.0761   -2.9223 H         1 <0>         0.0801
     49 H19         5.0083   -1.2364   -4.3353 H         1 <0>         0.0850
     50 H20         3.7577   -2.3870   -4.9033 H         1 <0>         0.0777
     51 H21         1.6432   -1.7597   -5.6088 H         1 <0>         0.1047
     52 H22         1.2552   -0.0665   -6.0709 H         1 <0>         0.0951
     53 H23         3.0843   -2.0421   -7.4422 H         1 <0>         0.1107
     54 H24         2.2453   -0.6173   -8.1331 H         1 <0>         0.1139
     55 H25         2.6819    2.6112   -3.2416 H         1 <0>         0.0647
     56 H26         4.1848    2.0136   -3.9847 H         1 <0>         0.0728
     57 H27         2.7824    2.4088   -5.0071 H         1 <0>         0.0651
     58 H28         3.6029   -4.3617    0.5011 H         1 <0>         0.0619
     59 H29         3.6165   -4.2509   -1.2754 H         1 <0>         0.0616
     60 H30         5.1508   -4.3382   -0.3773 H         1 <0>         0.1024
@<TRIPOS>BOND
     1    1    2 1
     2    1   34 1
     3    1   35 1
     4    1   36 1
     5    2    8 1
     6    2   13 1
     7    2    3 1
     8    3    4 1
     9    3   37 1
    10    3   38 1
    11    4    5 1
    12    4   39 1
    13    4   40 1
    14    5    6 2
    15    5    7 1
    16    7    8 2
    17    7   41 1
    18    8    9 1
    19    9   10 1
    20    9   42 1
    21    9   43 1
    22   10   11 1
    23   10   12 1
    24   10   30 1
    25   12   20 1
    26   12   13 1
    27   12   44 1
    28   13   14 1
    29   13   45 1
    30   14   15 1
    31   14   18 1
    32   14   16 1
    33   16   17 1
    34   16   18 1
    35   16   19 1
    36   19   23 1
    37   19   20 1
    38   19   29 1
    39   20   21 1
    40   20   46 1
    41   21   22 1
    42   21   47 1
    43   21   48 1
    44   22   23 1
    45   22   49 1
    46   22   50 1
    47   23   28 1
    48   23   24 1
    49   24   25 1
    50   24   51 1
    51   24   52 1
    52   25   26 1
    53   25   53 1
    54   25   54 1
    55   26   27 2
    56   26   28 1
    57   29   55 1
    58   29   56 1
    59   29   57 1
    60   30   31 2
    61   30   32 1
    62   32   33 1
    63   33   58 1
    64   33   59 1
    65   33   60 1
@<TRIPOS>MOLECULE
CHEMBL237122__1
   60    65     0     0     0
SMALL
USER_CHARGES

@<TRIPOS>ATOM
      1 C1          0.8116    1.2049    0.4435 C.3       1 <0>        -0.1513
      2 C2          0.9805   -0.3139    0.3681 C.3       1 <0>        -0.0174
      3 C3         -0.3811   -0.9546    0.5687 C.3       1 <0>        -0.1066
      4 C4         -0.7713   -0.9980    2.0458 C.3       1 <0>        -0.1662
      5 C5          0.3060   -1.7768    2.7750 C.2       1 <0>         0.3888
      6 O1          0.0333   -2.6749    3.5438 O.2       1 <0>        -0.4554
      7 C6          1.6943   -1.3900    2.5036 C.2       1 <0>        -0.2163
      8 C7          2.0027   -0.7247    1.3879 C.2       1 <0>        -0.0176
      9 C8          3.4539   -0.3380    1.1701 C.3       1 <0>        -0.0824
     10 C9          3.8655   -0.6916   -0.2630 C.3       1 <0>        -0.0714
     11 H1          4.8709   -0.3181   -0.4575 H         1 <0>         0.1181
     12 C10         2.8794   -0.0374   -1.2299 C.3       1 <0>        -0.0755
     13 C11         1.4983   -0.6680   -1.0266 C.3       1 <0>        -0.0675
     14 C12         0.5067   -0.2682   -2.1078 C.3       1 <0>        -0.0006
     15 H2         -0.4832    0.0203   -1.7542 H         1 <0>         0.1316
     16 C13         0.9807    0.3205   -3.4423 C.3       1 <0>         0.0216
     17 H3          0.2911    0.9961   -3.9484 H         1 <0>         0.1247
     18 O2          0.5801   -1.0308   -3.3256 O.3       1 <0>        -0.3380
     19 C14         2.4320    0.7061   -3.5322 C.3       1 <0>        -0.0405
     20 C15         3.2730   -0.2565   -2.6729 C.3       1 <0>        -0.0860
     21 C16         4.7013    0.1429   -3.0604 C.3       1 <0>        -0.1114
     22 C17         4.5926    0.3840   -4.5941 C.3       1 <0>        -0.1415
     23 C18         3.1101    0.6822   -4.8819 C.3       1 <0>         0.1233
     24 C19         2.4740   -0.3531   -5.8313 C.3       1 <0>        -0.1400
     25 C20         2.8636    0.2472   -7.2084 C.3       1 <0>        -0.1882
     26 C21         3.2131    1.6904   -6.8959 C.2       1 <0>         0.4811
     27 O3          3.6221    2.5011   -7.6929 O.2       1 <0>        -0.4482
     28 O4          2.9928    1.9231   -5.5848 O.3       1 <0>        -0.3288
     29 C22         2.6085    2.0975   -2.9209 C.3       1 <0>        -0.1493
     30 C23         3.8383   -2.1876   -0.4426 C.2       1 <0>         0.4596
     31 O5          3.1449   -2.8696    0.2744 O.2       1 <0>        -0.4883
     32 O6          4.5843   -2.7625   -1.3990 O.3       1 <0>        -0.3500
     33 C24         4.5097   -4.1850   -1.5126 C.3       1 <0>         0.0323
     34 H4          1.7657    1.6875    0.2321 H         1 <0>         0.0661
     35 H5          0.0720    1.5251   -0.2904 H         1 <0>         0.0688
     36 H6          0.4766    1.4841    1.4425 H         1 <0>         0.0660
     37 H7         -1.1283   -0.3813    0.0200 H         1 <0>         0.0831
     38 H8         -0.3568   -1.9715    0.1771 H         1 <0>         0.0707
     39 H9         -0.8300    0.0151    2.4436 H         1 <0>         0.1020
     40 H10        -1.7327   -1.4987    2.1607 H         1 <0>         0.0937
     41 H11         2.4732   -1.6547    3.2035 H         1 <0>         0.1324
     42 H12         3.5722    0.7339    1.3284 H         1 <0>         0.1036
     43 H13         4.0844   -0.8814    1.8740 H         1 <0>         0.0875
     44 H14         2.8255    1.0320   -1.0260 H         1 <0>         0.1182
     45 H15         1.6134   -1.7507   -1.0761 H         1 <0>         0.0860
     46 H16         3.0657   -1.2851   -2.9682 H         1 <0>         0.0889
     47 H17         4.9989    1.0569   -2.5465 H         1 <0>         0.0799
     48 H18         5.3995   -0.6662   -2.8458 H         1 <0>         0.0852
     49 H19         5.2241    1.2224   -4.8880 H         1 <0>         0.0852
     50 H20         4.8842   -0.5150   -5.1371 H         1 <0>         0.0816
     51 H21         2.9161   -1.3396   -5.6920 H         1 <0>         0.0990
     52 H22         1.3914   -0.3876   -5.7085 H         1 <0>         0.0946
     53 H23         3.7271   -0.2740   -7.6217 H         1 <0>         0.1127
     54 H24         2.0210    0.1990   -7.8983 H         1 <0>         0.1146
     55 H25         2.1321    2.1268   -1.9409 H         1 <0>         0.0696
     56 H26         3.6712    2.3157   -2.8150 H         1 <0>         0.0740
     57 H27         2.1479    2.8411   -3.5712 H         1 <0>         0.0708
     58 H28         4.8310   -4.6416   -0.5765 H         1 <0>         0.0611
     59 H29         3.4821   -4.4790   -1.7264 H         1 <0>         0.0598
     60 H30         5.1591   -4.5194   -2.3217 H         1 <0>         0.1023
@<TRIPOS>BOND
     1    1    2 1
     2    1   34 1
     3    1   35 1
     4    1   36 1
     5    2    8 1
     6    2   13 1
     7    2    3 1
     8    3    4 1
     9    3   37 1
    10    3   38 1
    11    4    5 1
    12    4   39 1
    13    4   40 1
    14    5    6 2
    15    5    7 1
    16    7    8 2
    17    7   41 1
    18    8    9 1
    19    9   10 1
    20    9   42 1
    21    9   43 1
    22   10   11 1
    23   10   12 1
    24   10   30 1
    25   12   20 1
    26   12   13 1
    27   12   44 1
    28   13   14 1
    29   13   45 1
    30   14   15 1
    31   14   18 1
    32   14   16 1
    33   16   17 1
    34   16   18 1
    35   16   19 1
    36   19   23 1
    37   19   20 1
    38   19   29 1
    39   20   21 1
    40   20   46 1
    41   21   22 1
    42   21   47 1
    43   21   48 1
    44   22   23 1
    45   22   49 1
    46   22   50 1
    47   23   28 1
    48   23   24 1
    49   24   25 1
    50   24   51 1
    51   24   52 1
    52   25   26 1
    53   25   53 1
    54   25   54 1
    55   26   27 2
    56   26   28 1
    57   29   55 1
    58   29   56 1
    59   29   57 1
    60   30   31 2
    61   30   32 1
    62   32   33 1
    63   33   58 1
    64   33   59 1
    65   33   60 1
@<TRIPOS>MOLECULE
CHEMBL237122__2
   60    65     0     0     0
SMALL
USER_CHARGES

@<TRIPOS>ATOM
      1 C1         -0.0123    1.5390    0.2380 C.3       1 <0>        -0.1525
      2 C2          0.0196    0.0162    0.0500 C.3       1 <0>        -0.0075
      3 C3         -1.4211   -0.4320   -0.1592 C.3       1 <0>        -0.1054
      4 C4         -2.2456   -0.3091    1.1191 C.3       1 <0>        -0.1658
      5 C5         -1.5668   -1.1044    2.2123 C.2       1 <0>         0.3917
      6 O1         -2.2193   -1.7431    3.0191 O.2       1 <0>        -0.4655
      7 C6         -0.1041   -1.0885    2.2735 C.2       1 <0>        -0.2271
      8 C7          0.6225   -0.5649    1.2867 C.2       1 <0>        -0.0049
      9 C8          2.1322   -0.5796    1.4429 C.3       1 <0>        -0.0927
     10 C9          2.6813   -1.3066    0.1998 C.3       1 <0>        -0.0690
     11 H1          3.7595   -1.3773    0.3001 H         1 <0>         0.1132
     12 C10         2.2920   -0.5074   -1.0183 C.3       1 <0>        -0.0602
     13 C11         0.8295   -0.2530   -1.2067 C.3       1 <0>        -0.0462
     14 C12         0.1461   -1.2510   -2.1210 C.3       1 <0>         0.0238
     15 H2         -0.8749   -0.9831   -2.4129 H         1 <0>         0.1210
     16 C13         0.9803   -1.9207   -3.2073 C.3       1 <0>        -0.0189
     17 H3          0.4813   -2.0801   -4.1681 H         1 <0>         0.1219
     18 O2          0.4540   -2.6327   -2.0832 O.3       1 <0>        -0.3083
     19 C14         2.4693   -1.7111   -3.2973 C.3       1 <0>        -0.0264
     20 C15         3.0715   -0.7526   -2.2767 C.3       1 <0>        -0.0676
     21 C16         4.4910   -1.3069   -1.9929 C.3       1 <0>        -0.1185
     22 C17         4.3475   -2.8411   -2.1675 C.3       1 <0>        -0.1551
     23 C18         3.2778   -2.9999   -3.2555 C.3       1 <0>         0.1230
     24 C19         2.3984   -4.2370   -2.9927 C.3       1 <0>        -0.1432
     25 C20         3.3137   -5.3502   -3.5753 C.3       1 <0>        -0.1911
     26 C21         4.2064   -4.6001   -4.5473 C.2       1 <0>         0.4790
     27 O3          5.0684   -5.0974   -5.2320 O.2       1 <0>        -0.4510
     28 O4          3.8825   -3.2893   -4.5245 O.3       1 <0>        -0.3289
     29 C22         2.7290   -1.0869   -4.6851 C.3       1 <0>        -0.1378
     30 C23         2.0770   -2.6844    0.2071 C.2       1 <0>         0.4536
     31 O5          0.8770   -2.8179    0.1624 O.2       1 <0>        -0.4532
     32 O6          2.8709   -3.7652    0.2632 O.3       1 <0>        -0.3584
     33 C24         2.2289   -5.0364    0.3813 C.3       1 <0>         0.0288
     34 H4          1.0030    1.9087    0.3816 H         1 <0>         0.0610
     35 H5         -0.4472    2.0053   -0.6460 H         1 <0>         0.0683
     36 H6         -0.6154    1.7846    1.1122 H         1 <0>         0.0635
     37 H7         -1.8714    0.1864   -0.9356 H         1 <0>         0.0784
     38 H8         -1.4255   -1.4732   -0.4816 H         1 <0>         0.0834
     39 H9         -2.3380    0.7345    1.4180 H         1 <0>         0.1003
     40 H10        -3.2480   -0.7144    0.9443 H         1 <0>         0.0923
     41 H11         0.3990   -1.5111    3.1349 H         1 <0>         0.1262
     42 H12         2.5229    0.4303    1.4727 H         1 <0>         0.1045
     43 H13         2.4118   -1.1353    2.3323 H         1 <0>         0.0877
     44 H14         2.6520    0.5270   -0.7264 H         1 <0>         0.0773
     45 H15         0.7902    0.7064   -1.7697 H         1 <0>         0.0905
     46 H16         3.1952    0.2397   -2.7953 H         1 <0>         0.0914
     47 H17         5.2100   -0.9131   -2.7249 H         1 <0>         0.0763
     48 H18         4.8382   -1.0526   -0.9930 H         1 <0>         0.0810
     49 H19         5.2993   -3.2592   -2.5255 H         1 <0>         0.0716
     50 H20         4.0700   -3.3356   -1.2478 H         1 <0>         0.1104
     51 H21         2.2252   -4.3952   -1.9310 H         1 <0>         0.1043
     52 H22         1.4591   -4.1856   -3.5438 H         1 <0>         0.0910
     53 H23         3.9063   -5.8076   -2.7842 H         1 <0>         0.1103
     54 H24         2.7194   -6.0987   -4.0961 H         1 <0>         0.1121
     55 H25         2.2031   -0.1351   -4.7595 H         1 <0>         0.0615
     56 H26         3.7986   -0.9222   -4.8150 H         1 <0>         0.0692
     57 H27         2.3686   -1.7627   -5.4606 H         1 <0>         0.0639
     58 H28         1.6041   -5.0463    1.2744 H         1 <0>         0.0602
     59 H29         1.6091   -5.2134   -0.4977 H         1 <0>         0.0643
     60 H30         2.9837   -5.8190    0.4573 H         1 <0>         0.0984
@<TRIPOS>BOND
     1    1    2 1
     2    1   34 1
     3    1   35 1
     4    1   36 1
     5    2    8 1
     6    2   13 1
     7    2    3 1
     8    3    4 1
     9    3   37 1
    10    3   38 1
    11    4    5 1
    12    4   39 1
    13    4   40 1
    14    5    6 2
    15    5    7 1
    16    7    8 2
    17    7   41 1
    18    8    9 1
    19    9   10 1
    20    9   42 1
    21    9   43 1
    22   10   11 1
    23   10   12 1
    24   10   30 1
    25   12   20 1
    26   12   13 1
    27   12   44 1
    28   13   14 1
    29   13   45 1
    30   14   15 1
    31   14   18 1
    32   14   16 1
    33   16   17 1
    34   16   18 1
    35   16   19 1
    36   19   23 1
    37   19   20 1
    38   19   29 1
    39   20   21 1
    40   20   46 1
    41   21   22 1
    42   21   47 1
    43   21   48 1
    44   22   23 1
    45   22   49 1
    46   22   50 1
    47   23   28 1
    48   23   24 1
    49   24   25 1
    50   24   51 1
    51   24   52 1
    52   25   26 1
    53   25   53 1
    54   25   54 1
    55   26   27 2
    56   26   28 1
    57   29   55 1
    58   29   56 1
    59   29   57 1
    60   30   31 2
    61   30   32 1
    62   32   33 1
    63   33   58 1
    64   33   59 1
    65   33   60 1
@<TRIPOS>MOLECULE
CHEMBL237122__3
   60    65     0     0     0
SMALL
USER_CHARGES

@<TRIPOS>ATOM
      1 C1          0.4247    1.6617    1.7126 C.3       1 <0>        -0.1579
      2 C2          0.3058    0.1294    1.6349 C.3       1 <0>        -0.0162
      3 C3         -1.0198   -0.1722    2.2958 C.3       1 <0>        -0.1039
      4 C4         -1.0246   -1.4964    3.0497 C.3       1 <0>        -0.1666
      5 C5          0.1493   -1.5195    4.0060 C.2       1 <0>         0.3954
      6 O1          0.0191   -1.8592    5.1669 O.2       1 <0>        -0.4632
      7 C6          1.4512   -1.1127    3.4658 C.2       1 <0>        -0.2140
      8 C7          1.5076   -0.3878    2.3547 C.2       1 <0>        -0.0164
      9 C8          2.8612   -0.0718    1.7391 C.3       1 <0>        -0.0865
     10 C9          2.8328   -0.6956    0.3368 C.3       1 <0>        -0.0691
     11 H1          3.7829   -0.4677   -0.1602 H         1 <0>         0.1055
     12 C10         1.6948   -0.1150   -0.4961 C.3       1 <0>        -0.0424
     13 C11         0.3332   -0.1926    0.1587 C.3       1 <0>        -0.0566
     14 C12        -0.4792   -1.4197   -0.2224 C.3       1 <0>         0.0275
     15 H2         -1.3781   -1.6099    0.3866 H         1 <0>         0.1303
     16 C13        -0.5629   -1.6727   -1.7550 C.3       1 <0>        -0.0276
     17 H3         -1.4913   -2.0160   -2.2231 H         1 <0>         0.1341
     18 O2          0.1283   -2.5458   -0.8436 O.3       1 <0>        -0.3204
     19 C14         0.3338   -0.7508   -2.5732 C.3       1 <0>        -0.0357
     20 C15         1.7144   -0.6888   -1.8826 C.3       1 <0>        -0.0893
     21 C16         2.5572    0.0453   -2.9393 C.3       1 <0>        -0.1128
     22 C17         2.1009   -0.6533   -4.2548 C.3       1 <0>        -0.1343
     23 C18         0.7260   -1.2846   -3.9514 C.3       1 <0>         0.1132
     24 C19         0.8359   -2.8210   -3.9464 C.3       1 <0>        -0.1446
     25 C20         0.5227   -3.1081   -5.4458 C.3       1 <0>        -0.1897
     26 C21        -0.4629   -1.9968   -5.7697 C.2       1 <0>         0.4813
     27 O3         -1.3152   -2.0386   -6.6217 O.2       1 <0>        -0.4495
     28 O4         -0.2333   -0.9564   -4.9476 O.3       1 <0>        -0.3233
     29 C22        -0.2996    0.6254   -2.7641 C.3       1 <0>        -0.1367
     30 C23         2.7186   -2.1889    0.4952 C.2       1 <0>         0.4588
     31 O5          1.8110   -2.6606    1.1384 O.2       1 <0>        -0.4687
     32 O6          3.6251   -2.9960   -0.0781 O.3       1 <0>        -0.3586
     33 C24         3.4553   -4.4018    0.1134 C.3       1 <0>         0.0369
     34 H4          1.3497    1.9793    1.2314 H         1 <0>         0.0627
     35 H5         -0.4246    2.1183    1.2044 H         1 <0>         0.0671
     36 H6          0.4331    1.9730    2.7572 H         1 <0>         0.0635
     37 H7         -1.2495    0.6315    3.0020 H         1 <0>         0.0760
     38 H8         -1.8012   -0.1840    1.5358 H         1 <0>         0.0825
     39 H9         -1.9590   -1.6007    3.6058 H         1 <0>         0.0907
     40 H10        -0.9364   -2.3265    2.3449 H         1 <0>         0.1030
     41 H11         2.3626   -1.4000    3.9729 H         1 <0>         0.1285
     42 H12         3.0309    0.9956    1.6730 H         1 <0>         0.1044
     43 H13         3.6464   -0.5433    2.3317 H         1 <0>         0.0845
     44 H14         1.9259    0.9694   -0.6214 H         1 <0>         0.0916
     45 H15        -0.2335    0.6685   -0.2656 H         1 <0>         0.0951
     46 H16         2.0974   -1.7164   -1.8538 H         1 <0>         0.0845
     47 H17         2.3378    1.1081   -2.9612 H         1 <0>         0.0801
     48 H18         3.6194   -0.1276   -2.7627 H         1 <0>         0.0773
     49 H19         2.0065    0.0767   -5.0565 H         1 <0>         0.0849
     50 H20         2.8114   -1.4321   -4.5283 H         1 <0>         0.0814
     51 H21         1.8422   -3.1496   -3.6894 H         1 <0>         0.1003
     52 H22         0.0985   -3.2830   -3.2928 H         1 <0>         0.0951
     53 H23         1.4212   -3.0247   -6.0529 H         1 <0>         0.1158
     54 H24         0.0666   -4.0909   -5.5553 H         1 <0>         0.1117
     55 H25        -0.3583    1.1349   -1.8023 H         1 <0>         0.0651
     56 H26         0.3095    1.2138   -3.4503 H         1 <0>         0.0699
     57 H27        -1.3022    0.5100   -3.1759 H         1 <0>         0.0689
     58 H28         3.4918   -4.6304    1.1785 H         1 <0>         0.0574
     59 H29         2.4913   -4.7099   -0.2915 H         1 <0>         0.0614
     60 H30         4.2533   -4.9376   -0.4007 H         1 <0>         0.0972
@<TRIPOS>BOND
     1    1    2 1
     2    1   34 1
     3    1   35 1
     4    1   36 1
     5    2    8 1
     6    2   13 1
     7    2    3 1
     8    3    4 1
     9    3   37 1
    10    3   38 1
    11    4    5 1
    12    4   39 1
    13    4   40 1
    14    5    6 2
    15    5    7 1
    16    7    8 2
    17    7   41 1
    18    8    9 1
    19    9   10 1
    20    9   42 1
    21    9   43 1
    22   10   11 1
    23   10   12 1
    24   10   30 1
    25   12   20 1
    26   12   13 1
    27   12   44 1
    28   13   14 1
    29   13   45 1
    30   14   15 1
    31   14   18 1
    32   14   16 1
    33   16   17 1
    34   16   18 1
    35   16   19 1
    36   19   23 1
    37   19   20 1
    38   19   29 1
    39   20   21 1
    40   20   46 1
    41   21   22 1
    42   21   47 1
    43   21   48 1
    44   22   23 1
    45   22   49 1
    46   22   50 1
    47   23   28 1
    48   23   24 1
    49   24   25 1
    50   24   51 1
    51   24   52 1
    52   25   26 1
    53   25   53 1
    54   25   54 1
    55   26   27 2
    56   26   28 1
    57   29   55 1
    58   29   56 1
    59   29   57 1
    60   30   31 2
    61   30   32 1
    62   32   33 1
    63   33   58 1
    64   33   59 1
    65   33   60 1
@<TRIPOS>MOLECULE
CHEMBL237122__4
   60    65     0     0     0
SMALL
USER_CHARGES

@<TRIPOS>ATOM
      1 C1         -0.0187    1.5258    0.0104 C.3       1 <0>        -0.1676
      2 C2          0.0021   -0.0041    0.0020 C.3       1 <0>        -0.0203
      3 C3         -1.4411   -0.4402    0.0540 C.3       1 <0>        -0.1081
      4 C4         -1.6202   -1.7668    0.7924 C.3       1 <0>        -0.1686
      5 C5         -0.9946   -1.6148    2.1663 C.2       1 <0>         0.3874
      6 O1         -1.6017   -1.8864    3.1810 O.2       1 <0>        -0.4508
      7 C6          0.3888   -1.1204    2.1975 C.2       1 <0>        -0.2222
      8 C7          0.8426   -0.4091    1.1684 C.2       1 <0>        -0.0360
      9 C8          2.3032    0.0058    1.1579 C.3       1 <0>        -0.0904
     10 C9          2.9231   -0.4793   -0.1519 C.3       1 <0>        -0.0730
     11 H1          3.9412   -0.0976   -0.2280 H         1 <0>         0.1267
     12 C10         2.1208   -0.0013   -1.3524 C.3       1 <0>        -0.0645
     13 C11         0.6714   -0.4007   -1.3007 C.3       1 <0>        -0.0594
     14 C12        -0.1099    0.1096   -2.4983 C.3       1 <0>         0.0099
     15 H2         -1.1918   -0.0035   -2.4279 H         1 <0>         0.1302
     16 C13         0.4045    1.3384   -3.2344 C.3       1 <0>        -0.0006
     17 H3         -0.3427    2.0232   -3.6354 H         1 <0>         0.1250
     18 O2          0.4586    0.0470   -3.8002 O.3       1 <0>        -0.3265
     19 C14         1.7326    1.9659   -2.8913 C.3       1 <0>        -0.0312
     20 C15         2.3226    1.4936   -1.5567 C.3       1 <0>        -0.0870
     21 C16         3.8513    1.7269   -1.7580 C.3       1 <0>        -0.1281
     22 C17         4.0598    1.2888   -3.2336 C.3       1 <0>        -0.1406
     23 C18         2.7857    1.7639   -3.9722 C.3       1 <0>         0.1165
     24 C19         2.3127    0.7459   -5.0303 C.3       1 <0>        -0.1336
     25 C20         3.1526    1.1983   -6.2542 C.3       1 <0>        -0.1924
     26 C21         3.5843    2.6100   -5.9022 C.2       1 <0>         0.4797
     27 O3          4.3059    3.3102   -6.5722 O.2       1 <0>        -0.4500
     28 O4          3.0325    2.9579   -4.7200 O.3       1 <0>        -0.3260
     29 C22         1.5094    3.4724   -2.7438 C.3       1 <0>        -0.1412
     30 C23         2.9597   -1.9859   -0.1525 C.2       1 <0>         0.4604
     31 O5          2.3729   -2.6041   -1.0088 O.2       1 <0>        -0.4947
     32 O6          3.6442   -2.6409    0.7983 O.3       1 <0>        -0.3509
     33 C24         3.6359   -4.0686    0.7366 C.3       1 <0>         0.0326
     34 H4          0.9340    1.9000    0.3853 H         1 <0>         0.0710
     35 H5         -0.1795    1.8925   -1.0033 H         1 <0>         0.0752
     36 H6         -0.8252    1.8747    0.6553 H         1 <0>         0.0617
     37 H7         -2.0243    0.3282    0.5614 H         1 <0>         0.0795
     38 H8         -1.8140   -0.5495   -0.9644 H         1 <0>         0.0858
     39 H9         -2.6815   -1.9941    0.8924 H         1 <0>         0.0953
     40 H10        -1.1201   -2.5655    0.2446 H         1 <0>         0.0993
     41 H11         1.0319   -1.3444    3.0357 H         1 <0>         0.1402
     42 H12         2.3782    1.0914    1.2211 H         1 <0>         0.1036
     43 H13         2.8216   -0.4496    2.0017 H         1 <0>         0.0968
     44 H14         2.5424   -0.4960   -2.2273 H         1 <0>         0.0880
     45 H15         0.6401   -1.4890   -1.3544 H         1 <0>         0.1006
     46 H16         1.9296    2.0626   -0.7141 H         1 <0>         0.1149
     47 H17         4.1038    2.7791   -1.6263 H         1 <0>         0.0823
     48 H18         4.4319    1.0999   -1.0814 H         1 <0>         0.0819
     49 H19         4.9434    1.7691   -3.6539 H         1 <0>         0.0780
     50 H20         4.1438    0.2042   -3.3023 H         1 <0>         0.0860
     51 H21         2.5623   -0.2735   -4.7359 H         1 <0>         0.1001
     52 H22         1.2452    0.8475   -5.2255 H         1 <0>         0.1072
     53 H23         4.0221    0.5531   -6.3805 H         1 <0>         0.1098
     54 H24         2.5422    1.1994   -7.1572 H         1 <0>         0.1127
     55 H25         0.7955    3.6571   -1.9411 H         1 <0>         0.0634
     56 H26         2.4559    3.9584   -2.5072 H         1 <0>         0.0699
     57 H27         1.1178    3.8748   -3.6780 H         1 <0>         0.0653
     58 H28         2.6102   -4.4296    0.8129 H         1 <0>         0.0613
     59 H29         4.0661   -4.3938   -0.2106 H         1 <0>         0.0615
     60 H30         4.2250   -4.4713    1.5605 H         1 <0>         0.1037
@<TRIPOS>BOND
     1    1    2 1
     2    1   34 1
     3    1   35 1
     4    1   36 1
     5    2    8 1
     6    2   13 1
     7    2    3 1
     8    3    4 1
     9    3   37 1
    10    3   38 1
    11    4    5 1
    12    4   39 1
    13    4   40 1
    14    5    6 2
    15    5    7 1
    16    7    8 2
    17    7   41 1
    18    8    9 1
    19    9   10 1
    20    9   42 1
    21    9   43 1
    22   10   11 1
    23   10   12 1
    24   10   30 1
    25   12   20 1
    26   12   13 1
    27   12   44 1
    28   13   14 1
    29   13   45 1
    30   14   15 1
    31   14   18 1
    32   14   16 1
    33   16   17 1
    34   16   18 1
    35   16   19 1
    36   19   23 1
    37   19   20 1
    38   19   29 1
    39   20   21 1
    40   20   46 1
    41   21   22 1
    42   21   47 1
    43   21   48 1
    44   22   23 1
    45   22   49 1
    46   22   50 1
    47   23   28 1
    48   23   24 1
    49   24   25 1
    50   24   51 1
    51   24   52 1
    52   25   26 1
    53   25   53 1
    54   25   54 1
    55   26   27 2
    56   26   28 1
    57   29   55 1
    58   29   56 1
    59   29   57 1
    60   30   31 2
    61   30   32 1
    62   32   33 1
    63   33   58 1
    64   33   59 1
    65   33   60 1
@<TRIPOS>MOLECULE
CHEMBL237122__5
   60    65     0     0     0
SMALL
USER_CHARGES

@<TRIPOS>ATOM
      1 C1         -0.0186    1.5241    0.0104 C.3       1 <0>        -0.1462
      2 C2          0.0021   -0.0041    0.0020 C.3       1 <0>        -0.0179
      3 C3         -1.4485   -0.5023    0.1053 C.3       1 <0>        -0.1100
      4 C4         -2.1161    0.1224    1.3332 C.3       1 <0>        -0.1668
      5 C5         -1.2457   -0.0535    2.5510 C.2       1 <0>         0.3875
      6 O1         -1.7059    0.1552    3.6573 O.2       1 <0>        -0.4606
      7 C6          0.1482   -0.4715    2.4168 C.2       1 <0>        -0.2251
      8 C7          0.7339   -0.4969    1.2281 C.2       1 <0>        -0.0357
      9 C8          2.1029   -1.0956    1.0323 C.3       1 <0>        -0.0867
     10 C9          1.9337   -2.3062    0.1140 C.3       1 <0>        -0.0599
     11 H1          2.8909   -2.7532   -0.0908 H         1 <0>         0.1232
     12 C10         1.1611   -1.9670   -1.1423 C.3       1 <0>        -0.0765
     13 C11         0.6604   -0.5377   -1.2489 C.3       1 <0>        -0.0530
     14 C12         1.5642    0.4191   -1.9924 C.3       1 <0>        -0.0047
     15 H2          1.7738    1.3916   -1.5496 H         1 <0>         0.1329
     16 C13         2.6570   -0.0737   -2.9605 C.3       1 <0>         0.0144
     17 H3          3.4990    0.6137   -3.1123 H         1 <0>         0.1210
     18 O2          1.4031    0.3663   -3.4303 O.3       1 <0>        -0.3351
     19 C14         3.0615   -1.5088   -2.7912 C.3       1 <0>        -0.0349
     20 C15         1.8460   -2.3723   -2.4163 C.3       1 <0>        -0.0766
     21 C16         2.4507   -3.7875   -2.4806 C.3       1 <0>        -0.1168
     22 C17         3.2084   -3.7160   -3.8443 C.3       1 <0>        -0.1369
     23 C18         3.6266   -2.2396   -4.0044 C.3       1 <0>         0.1147
     24 C19         3.0918   -1.6630   -5.3266 C.3       1 <0>        -0.1428
     25 C20         4.2497   -2.0824   -6.2805 C.3       1 <0>        -0.1888
     26 C21         5.4581   -2.0555   -5.3589 C.2       1 <0>         0.4784
     27 O3          6.6106   -1.9859   -5.7164 O.2       1 <0>        -0.4532
     28 O4          5.0467   -2.1218   -4.0801 O.3       1 <0>        -0.3225
     29 C22         4.1686   -1.5441   -1.7374 C.3       1 <0>        -0.1466
     30 C23         1.1343   -3.3399    0.8873 C.2       1 <0>         0.4528
     31 O5          0.0703   -3.7228    0.4618 O.2       1 <0>        -0.4962
     32 O6          1.6098   -3.8283    2.0437 O.3       1 <0>        -0.3480
     33 C24         0.8052   -4.7978    2.7181 C.3       1 <0>         0.0319
     34 H4          1.0039    1.9014    0.0027 H         1 <0>         0.0655
     35 H5         -0.5458    1.8852   -0.8726 H         1 <0>         0.0706
     36 H6         -0.5288    1.8756    0.9072 H         1 <0>         0.0651
     37 H7         -1.9906   -0.2131   -0.7948 H         1 <0>         0.0826
     38 H8         -1.4475   -1.5879    0.2009 H         1 <0>         0.0805
     39 H9         -2.3309    1.1741    1.1693 H         1 <0>         0.1072
     40 H10        -3.0700   -0.3930    1.5116 H         1 <0>         0.0972
     41 H11         0.7047   -0.7617    3.2952 H         1 <0>         0.1356
     42 H12         2.7625   -0.3722    0.5652 H         1 <0>         0.1049
     43 H13         2.5056   -1.4220    1.9867 H         1 <0>         0.0970
     44 H14         0.2227   -2.5934   -1.0811 H         1 <0>         0.1171
     45 H15        -0.2050   -0.6410   -1.9479 H         1 <0>         0.0821
     46 H16         1.0991   -2.3067   -3.2506 H         1 <0>         0.0880
     47 H17         3.1263   -3.9835   -1.6609 H         1 <0>         0.0787
     48 H18         1.6572   -4.5337   -2.5284 H         1 <0>         0.0781
     49 H19         4.0854   -4.3587   -3.8174 H         1 <0>         0.0841
     50 H20         2.5421   -4.0099   -4.6537 H         1 <0>         0.0858
     51 H21         2.1504   -2.1289   -5.6195 H         1 <0>         0.1026
     52 H22         2.9940   -0.5772   -5.2844 H         1 <0>         0.0947
     53 H23         4.0841   -3.0849   -6.6743 H         1 <0>         0.1154
     54 H24         4.3651   -1.3613   -7.0899 H         1 <0>         0.1125
     55 H25         3.7865   -1.1504   -0.7956 H         1 <0>         0.0672
     56 H26         4.5005   -2.5723   -1.5934 H         1 <0>         0.0715
     57 H27         5.0082   -0.9348   -2.0720 H         1 <0>         0.0729
     58 H28        -0.1633   -4.3606    2.9609 H         1 <0>         0.0615
     59 H29         0.6612   -5.6635    2.0716 H         1 <0>         0.0620
     60 H30         1.3039   -5.1087    3.6360 H         1 <0>         0.1043
@<TRIPOS>BOND
     1    1    2 1
     2    1   34 1
     3    1   35 1
     4    1   36 1
     5    2    8 1
     6    2   13 1
     7    2    3 1
     8    3    4 1
     9    3   37 1
    10    3   38 1
    11    4    5 1
    12    4   39 1
    13    4   40 1
    14    5    6 2
    15    5    7 1
    16    7    8 2
    17    7   41 1
    18    8    9 1
    19    9   10 1
    20    9   42 1
    21    9   43 1
    22   10   11 1
    23   10   12 1
    24   10   30 1
    25   12   20 1
    26   12   13 1
    27   12   44 1
    28   13   14 1
    29   13   45 1
    30   14   15 1
    31   14   18 1
    32   14   16 1
    33   16   17 1
    34   16   18 1
    35   16   19 1
    36   19   23 1
    37   19   20 1
    38   19   29 1
    39   20   21 1
    40   20   46 1
    41   21   22 1
    42   21   47 1
    43   21   48 1
    44   22   23 1
    45   22   49 1
    46   22   50 1
    47   23   28 1
    48   23   24 1
    49   24   25 1
    50   24   51 1
    51   24   52 1
    52   25   26 1
    53   25   53 1
    54   25   54 1
    55   26   27 2
    56   26   28 1
    57   29   55 1
    58   29   56 1
    59   29   57 1
    60   30   31 2
    61   30   32 1
    62   32   33 1
    63   33   58 1
    64   33   59 1
    65   33   60 1
@<TRIPOS>MOLECULE
CHEMBL237122__6
   60    65     0     0     0
SMALL
USER_CHARGES

@<TRIPOS>ATOM
      1 C1         -0.0187    1.5276    0.0104 C.3       1 <0>        -0.1415
      2 C2          0.0021   -0.0041    0.0020 C.3       1 <0>        -0.0278
      3 C3         -1.4231   -0.5483    0.0072 C.3       1 <0>        -0.1009
      4 C4         -2.1467   -0.1007    1.2804 C.3       1 <0>        -0.1682
      5 C5         -1.3330   -0.4787    2.4915 C.2       1 <0>         0.3872
      6 O1         -1.8784   -0.6139    3.5694 O.2       1 <0>        -0.4615
      7 C6          0.1092   -0.6901    2.3776 C.2       1 <0>        -0.2230
      8 C7          0.7328   -0.4986    1.2262 C.2       1 <0>        -0.0330
      9 C8          2.2007   -0.8140    1.0492 C.3       1 <0>        -0.0903
     10 C9          2.2853   -2.0161    0.1058 C.3       1 <0>        -0.0645
     11 H1          3.3002   -2.1100   -0.2598 H         1 <0>         0.1220
     12 C10         1.3158   -1.8975   -1.0623 C.3       1 <0>        -0.0877
     13 C11         0.7631   -0.4887   -1.2354 C.3       1 <0>        -0.0535
     14 C12        -0.1833   -0.4347   -2.4322 C.3       1 <0>         0.0071
     15 H2         -0.4876    0.5649   -2.7423 H         1 <0>         0.1270
     16 C13        -0.0604   -1.4744   -3.5373 C.3       1 <0>         0.0045
     17 H3         -0.2969   -1.1265   -4.5487 H         1 <0>         0.1252
     18 O2         -1.1351   -1.4807   -2.5956 O.3       1 <0>        -0.3314
     19 C14         0.9891   -2.5564   -3.4772 C.3       1 <0>        -0.0298
     20 C15         2.0276   -2.3044   -2.3587 C.3       1 <0>        -0.0730
     21 C16         2.6463   -3.7182   -2.1818 C.3       1 <0>        -0.1220
     22 C17         1.4122   -4.6520   -2.2516 C.3       1 <0>        -0.1501
     23 C18         0.4483   -3.9554   -3.2258 C.3       1 <0>         0.1207
     24 C19        -0.9814   -3.9659   -2.6536 C.3       1 <0>        -0.1330
     25 C20        -1.3369   -5.4549   -2.9642 C.3       1 <0>        -0.1918
     26 C21        -0.6127   -5.6674   -4.2836 C.2       1 <0>         0.4765
     27 O3         -0.8479   -6.5487   -5.0776 O.2       1 <0>        -0.4566
     28 O4          0.3339   -4.7177   -4.4353 O.3       1 <0>        -0.3278
     29 C22         1.7358   -2.5598   -4.8236 C.3       1 <0>        -0.1370
     30 C23         1.9252   -3.2354    0.9247 C.2       1 <0>         0.4582
     31 O5          0.9764   -3.9148    0.6115 O.2       1 <0>        -0.4928
     32 O6          2.6596   -3.5629    1.9995 O.3       1 <0>        -0.3505
     33 C24         2.2623   -4.7273    2.7264 C.3       1 <0>         0.0322
     34 H4          1.0039    1.9049    0.0027 H         1 <0>         0.0650
     35 H5         -0.5459    1.8887   -0.8726 H         1 <0>         0.0682
     36 H6         -0.5289    1.8791    0.9072 H         1 <0>         0.0626
     37 H7         -1.9656   -0.1705   -0.8626 H         1 <0>         0.0857
     38 H8         -1.4009   -1.6397   -0.0308 H         1 <0>         0.0757
     39 H9         -2.3221    0.9715    1.2672 H         1 <0>         0.1041
     40 H10        -3.1160   -0.6085    1.3330 H         1 <0>         0.0946
     41 H11         0.6672   -1.0109    3.2460 H         1 <0>         0.1319
     42 H12         2.7168    0.0334    0.6095 H         1 <0>         0.1040
     43 H13         2.6395   -1.0749    2.0073 H         1 <0>         0.0951
     44 H14         0.4781   -2.5742   -0.8906 H         1 <0>         0.1155
     45 H15         1.6024    0.1892   -1.4229 H         1 <0>         0.0996
     46 H16         2.7701   -1.5623   -2.6656 H         1 <0>         0.1015
     47 H17         3.3276   -3.9430   -3.0098 H         1 <0>         0.0763
     48 H18         3.1787   -3.8255   -1.2446 H         1 <0>         0.0703
     49 H19         1.7029   -5.6248   -2.6474 H         1 <0>         0.0740
     50 H20         0.9533   -4.7561   -1.2758 H         1 <0>         0.1062
     51 H21        -0.9970   -3.7715   -1.5854 H         1 <0>         0.1060
     52 H22        -1.6477   -3.2998   -3.2029 H         1 <0>         0.1001
     53 H23        -0.9451   -6.1142   -2.1939 H         1 <0>         0.1128
     54 H24        -2.4092   -5.5764   -3.0839 H         1 <0>         0.1101
     55 H25         2.2128   -1.5918   -4.9769 H         1 <0>         0.0640
     56 H26         2.4951   -3.3418   -4.8160 H         1 <0>         0.0685
     57 H27         1.0282   -2.7482   -5.6310 H         1 <0>         0.0670
     58 H28         1.2452   -4.5956    3.0957 H         1 <0>         0.0623
     59 H29         2.3006   -5.5964    2.0696 H         1 <0>         0.0619
     60 H30         2.9379   -4.8781    3.5684 H         1 <0>         0.1039
@<TRIPOS>BOND
     1    1    2 1
     2    1   34 1
     3    1   35 1
     4    1   36 1
     5    2    8 1
     6    2   13 1
     7    2    3 1
     8    3    4 1
     9    3   37 1
    10    3   38 1
    11    4    5 1
    12    4   39 1
    13    4   40 1
    14    5    6 2
    15    5    7 1
    16    7    8 2
    17    7   41 1
    18    8    9 1
    19    9   10 1
    20    9   42 1
    21    9   43 1
    22   10   11 1
    23   10   12 1
    24   10   30 1
    25   12   20 1
    26   12   13 1
    27   12   44 1
    28   13   14 1
    29   13   45 1
    30   14   15 1
    31   14   18 1
    32   14   16 1
    33   16   17 1
    34   16   18 1
    35   16   19 1
    36   19   23 1
    37   19   20 1
    38   19   29 1
    39   20   21 1
    40   20   46 1
    41   21   22 1
    42   21   47 1
    43   21   48 1
    44   22   23 1
    45   22   49 1
    46   22   50 1
    47   23   28 1
    48   23   24 1
    49   24   25 1
    50   24   51 1
    51   24   52 1
    52   25   26 1
    53   25   53 1
    54   25   54 1
    55   26   27 2
    56   26   28 1
    57   29   55 1
    58   29   56 1
    59   29   57 1
    60   30   31 2
    61   30   32 1
    62   32   33 1
    63   33   58 1
    64   33   59 1
    65   33   60 1
@<TRIPOS>MOLECULE
CHEMBL237122__7
   60    65     0     0     0
SMALL
USER_CHARGES

@<TRIPOS>ATOM
      1 C1         -0.3288    1.9601   -0.6696 C.3       1 <0>        -0.1434
      2 C2         -0.3862    0.4395   -0.5106 C.3       1 <0>        -0.0313
      3 C3         -1.8305   -0.0402   -0.6629 C.3       1 <0>        -0.1056
      4 C4         -2.6875    0.6137    0.4266 C.3       1 <0>        -0.1693
      5 C5         -2.1056    0.2733    1.7759 C.2       1 <0>         0.3871
      6 O1         -2.8221    0.2374    2.7544 O.2       1 <0>        -0.4587
      7 C6         -0.6782   -0.0138    1.9041 C.2       1 <0>        -0.2250
      8 C7          0.1320    0.0507    0.8540 C.2       1 <0>        -0.0286
      9 C8          1.6029   -0.2593    0.9952 C.3       1 <0>        -0.0902
     10 C9          1.9596   -1.4475    0.1036 C.3       1 <0>        -0.0716
     11 H1          2.9644   -1.3067   -0.2947 H         1 <0>         0.1210
     12 C10         0.9785   -1.5803   -1.0524 C.3       1 <0>        -0.0592
     13 C11         0.5120   -0.2223   -1.5572 C.3       1 <0>        -0.0724
     14 C12        -0.2401   -0.3394   -2.8890 C.3       1 <0>         0.0078
     15 H2         -0.8322    0.5263   -3.1858 H         1 <0>         0.1356
     16 C13         0.5611   -1.1101   -3.9789 C.3       1 <0>        -0.0174
     17 H3          0.5419   -0.7949   -5.0221 H         1 <0>         0.1431
     18 O2         -0.6437   -1.6254   -3.3442 O.3       1 <0>        -0.3253
     19 C14         1.8975   -1.5980   -3.4083 C.3       1 <0>        -0.0402
     20 C15         1.5129   -2.4482   -2.1491 C.3       1 <0>        -0.0709
     21 C16         2.7977   -3.2318   -1.8727 C.3       1 <0>        -0.1209
     22 C17         3.2724   -3.6349   -3.2981 C.3       1 <0>        -0.1326
     23 C18         2.6555   -2.5936   -4.2672 C.3       1 <0>         0.1172
     24 C19         1.7124   -3.3277   -5.2430 C.3       1 <0>        -0.1476
     25 C20         2.7370   -3.7202   -6.3464 C.3       1 <0>        -0.1890
     26 C21         3.7336   -2.5742   -6.2835 C.2       1 <0>         0.4797
     27 O3          4.4925   -2.2590   -7.1692 O.2       1 <0>        -0.4525
     28 O4          3.6386   -1.9666   -5.0882 O.3       1 <0>        -0.3217
     29 C22         2.7923   -0.4080   -3.0562 C.3       1 <0>        -0.1466
     30 C23         1.9266   -2.7100    0.9259 C.2       1 <0>         0.4616
     31 O5          1.1705   -3.6046    0.6293 O.2       1 <0>        -0.4916
     32 O6          2.7370   -2.8406    1.9879 O.3       1 <0>        -0.3523
     33 C24         2.6526   -4.0638    2.7219 C.3       1 <0>         0.0324
     34 H4          0.7023    2.2978   -0.5649 H         1 <0>         0.0659
     35 H5         -0.7034    2.2368   -1.6551 H         1 <0>         0.0695
     36 H6         -0.9444    2.4292    0.0979 H         1 <0>         0.0648
     37 H7         -2.2083    0.2449   -1.6448 H         1 <0>         0.0843
     38 H8         -1.8684   -1.1243   -0.5557 H         1 <0>         0.0746
     39 H9         -2.6871    1.6952    0.2913 H         1 <0>         0.1059
     40 H10        -3.7082    0.2365    0.3636 H         1 <0>         0.0971
     41 H11        -0.2754   -0.2825    2.8695 H         1 <0>         0.1317
     42 H12         2.1880    0.6096    0.6940 H         1 <0>         0.1036
     43 H13         1.8246   -0.5048    2.0338 H         1 <0>         0.0933
     44 H14         0.0936   -2.0799   -0.6582 H         1 <0>         0.0908
     45 H15         1.3853    0.4098   -1.7184 H         1 <0>         0.1155
     46 H16         0.7404   -3.1632   -2.4322 H         1 <0>         0.0925
     47 H17         3.5382   -2.5985   -1.3842 H         1 <0>         0.0726
     48 H18         2.5882   -4.1164   -1.2714 H         1 <0>         0.0791
     49 H19         4.3596   -3.5869   -3.3589 H         1 <0>         0.0811
     50 H20         2.9268   -4.6404   -3.5381 H         1 <0>         0.0847
     51 H21         1.2695   -4.2095   -4.7800 H         1 <0>         0.1035
     52 H22         0.9451   -2.6589   -5.6329 H         1 <0>         0.0940
     53 H23         3.2200   -4.6678   -6.1078 H         1 <0>         0.1154
     54 H24         2.2568   -3.7636   -7.3239 H         1 <0>         0.1129
     55 H25         2.6845   -0.1731   -1.9973 H         1 <0>         0.0745
     56 H26         3.8315   -0.6594   -3.2687 H         1 <0>         0.0748
     57 H27         2.4985    0.4563   -3.6519 H         1 <0>         0.0690
     58 H28         1.6410   -4.1864    3.1086 H         1 <0>         0.0617
     59 H29         2.8941   -4.8992    2.0647 H         1 <0>         0.0617
     60 H30         3.3585   -4.0388    3.5521 H         1 <0>         0.1041
@<TRIPOS>BOND
     1    1    2 1
     2    1   34 1
     3    1   35 1
     4    1   36 1
     5    2    8 1
     6    2   13 1
     7    2    3 1
     8    3    4 1
     9    3   37 1
    10    3   38 1
    11    4    5 1
    12    4   39 1
    13    4   40 1
    14    5    6 2
    15    5    7 1
    16    7    8 2
    17    7   41 1
    18    8    9 1
    19    9   10 1
    20    9   42 1
    21    9   43 1
    22   10   11 1
    23   10   12 1
    24   10   30 1
    25   12   20 1
    26   12   13 1
    27   12   44 1
    28   13   14 1
    29   13   45 1
    30   14   15 1
    31   14   18 1
    32   14   16 1
    33   16   17 1
    34   16   18 1
    35   16   19 1
    36   19   23 1
    37   19   20 1
    38   19   29 1
    39   20   21 1
    40   20   46 1
    41   21   22 1
    42   21   47 1
    43   21   48 1
    44   22   23 1
    45   22   49 1
    46   22   50 1
    47   23   28 1
    48   23   24 1
    49   24   25 1
    50   24   51 1
    51   24   52 1
    52   25   26 1
    53   25   53 1
    54   25   54 1
    55   26   27 2
    56   26   28 1
    57   29   55 1
    58   29   56 1
    59   29   57 1
    60   30   31 2
    61   30   32 1
    62   32   33 1
    63   33   58 1
    64   33   59 1
    65   33   60 1
@<TRIPOS>MOLECULE
CHEMBL419633
   50    52     0     0     0
SMALL
USER_CHARGES

@<TRIPOS>ATOM
      1 C1         -0.0184    1.5028    0.0103 C.3       1 <0>        -0.0761
      2 C2          0.0021   -0.0041    0.0020 C.ar      1 <0>        -0.1508
      3 C3          0.0058   -0.6930   -1.2029 C.ar      1 <0>         0.2860
      4 C4          0.0246   -2.0824   -1.2070 C.ar      1 <0>        -0.2579
      5 C5          0.0396   -2.7781   -0.0132 C.ar      1 <0>        -0.0737
      6 C6          0.0355   -2.0956    1.1877 C.ar      1 <0>        -0.2193
      7 C7          0.0230   -0.7057    1.1989 C.ar      1 <0>         0.1901
      8 N1          0.0256   -0.0163    2.4135 N.pl3     1 <0>        -0.6510
      9 C8          1.2955    0.3621    3.0383 C.3       1 <0>         0.1872
     10 C9          1.7078    1.7273    2.5513 C.ar      1 <0>        -0.0972
     11 C10         2.4887    1.8499    1.4172 C.ar      1 <0>        -0.0813
     12 C11         2.8669    3.1022    0.9705 C.ar      1 <0>        -0.1234
     13 C12         2.4638    4.2320    1.6576 C.ar      1 <0>        -0.1236
     14 C13         1.6821    4.1095    2.7911 C.ar      1 <0>        -0.1303
     15 C14         1.3004    2.8573    3.2353 C.ar      1 <0>        -0.1098
     16 C15        -1.2416    0.3285    3.0628 C.3       1 <0>         0.1848
     17 C16        -1.6529   -0.7888    3.9867 C.ar      1 <0>        -0.0920
     18 C17        -2.4373   -1.8239    3.5131 C.ar      1 <0>        -0.0950
     19 C18        -2.8146   -2.8487    4.3606 C.ar      1 <0>        -0.1227
     20 C19        -2.4072   -2.8388    5.6815 C.ar      1 <0>        -0.1281
     21 C20        -1.6220   -1.8042    6.1548 C.ar      1 <0>        -0.1275
     22 C21        -1.2411   -0.7816    5.3063 C.ar      1 <0>        -0.1115
     23 N2         -0.0099    0.0095   -2.4099 N.2       1 <0>        -1.0924
     24 S1         -0.0054   -0.8133   -3.8470 S.o2      1 <0>         2.5221
     25 O1          1.2388   -1.4995   -3.8681 O.2       1 <0>        -1.0326
     26 O2         -1.2302   -1.5338   -3.8561 O.2       1 <0>        -1.0330
     27 C22        -0.0296    0.4762   -5.1226 C.3       1 <0>        -0.6376
     28 H1          1.0042    1.8801    0.0026 H         1 <0>         0.0572
     29 H2         -0.5455    1.8639   -0.8728 H         1 <0>         0.0577
     30 H3         -0.5286    1.8543    0.9071 H         1 <0>         0.0358
     31 H4          0.0271   -2.6190   -2.1442 H         1 <0>         0.0971
     32 H5          0.0542   -3.8580   -0.0192 H         1 <0>         0.0961
     33 H6          0.0469   -2.6424    2.1189 H         1 <0>         0.0970
     34 H7          1.1754    0.3837    4.1214 H         1 <0>         0.0648
     35 H8          2.0623   -0.3654    2.7722 H         1 <0>         0.0696
     36 H9          2.8037    0.9673    0.8805 H         1 <0>         0.1210
     37 H10         3.4776    3.1980    0.0849 H         1 <0>         0.1170
     38 H11         2.7598    5.2104    1.3089 H         1 <0>         0.1131
     39 H12         1.3674    4.9921    3.3280 H         1 <0>         0.1128
     40 H13         0.6865    2.7618    4.1188 H         1 <0>         0.1125
     41 H14        -1.1179    1.2471    3.6363 H         1 <0>         0.0659
     42 H15        -2.0106    0.4744    2.3043 H         1 <0>         0.0717
     43 H16        -2.7557   -1.8316    2.4812 H         1 <0>         0.1221
     44 H17        -3.4281   -3.6570    3.9908 H         1 <0>         0.1165
     45 H18        -2.7025   -3.6391    6.3437 H         1 <0>         0.1138
     46 H19        -1.3039   -1.7963    7.1869 H         1 <0>         0.1142
     47 H20        -0.6246    0.0248    5.6751 H         1 <0>         0.1148
     48 H21         0.8523    1.1081   -5.0171 H         1 <0>         0.1137
     49 H22        -0.0279    0.0118   -6.1088 H         1 <0>         0.0986
     50 H23        -0.9275    1.0834   -5.0085 H         1 <0>         0.1137
@<TRIPOS>BOND
     1    1    2 1
     2    1   28 1
     3    1   29 1
     4    1   30 1
     5    2    7 ar
     6    2    3 ar
     7    3    4 ar
     8    3   23 1
     9    4    5 ar
    10    4   31 1
    11    5    6 ar
    12    5   32 1
    13    6    7 ar
    14    6   33 1
    15    7    8 1
    16    8    9 1
    17    8   16 1
    18    9   10 1
    19    9   34 1
    20    9   35 1
    21   10   15 ar
    22   10   11 ar
    23   11   12 ar
    24   11   36 1
    25   12   13 ar
    26   12   37 1
    27   13   14 ar
    28   13   38 1
    29   14   15 ar
    30   14   39 1
    31   15   40 1
    32   16   17 1
    33   16   41 1
    34   16   42 1
    35   17   22 ar
    36   17   18 ar
    37   18   19 ar
    38   18   43 1
    39   19   20 ar
    40   19   44 1
    41   20   21 ar
    42   20   45 1
    43   21   22 ar
    44   21   46 1
    45   22   47 1
    46   23   24 1
    47   24   25 2
    48   24   26 2
    49   24   27 1
    50   27   48 1
    51   27   49 1
    52   27   50 1
