@<TRIPOS>MOLECULE
ZINC01501380
   45    47     0     0     0
SMALL
USER_CHARGES
4-ethylsulfanyl-N-[4-(4-methylpyrimidin-2-yl)sulfanylphenyl]-benzamide
@<TRIPOS>ATOM
      1 C1          2.2088  -10.6864   -0.3906 C.3       1 <0>        -0.1397
      2 C2          2.0167   -9.1698   -0.3276 C.3       1 <0>        -0.1144
      3 S1          0.3437   -8.7484   -0.8879 S.3       1 <0>        -0.1012
      4 C3          0.2804   -6.9923   -0.7583 C.ar      1 <0>        -0.0532
      5 C4         -0.8812   -6.3104   -1.1136 C.ar      1 <0>        -0.1089
      6 C5         -0.9332   -4.9441   -1.0142 C.ar      1 <0>        -0.0320
      7 C6          0.1812   -4.2349   -0.5552 C.ar      1 <0>        -0.1491
      8 C7          1.3476   -4.9218   -0.2038 C.ar      1 <0>        -0.0612
      9 C8          1.3920   -6.2886   -0.3003 C.ar      1 <0>        -0.1435
     10 C9          0.1286   -2.7653   -0.4476 C.2       1 <0>         0.5637
     11 O1         -0.8847   -2.1687   -0.7583 O.2       1 <0>        -0.5111
     12 N1          1.2034   -2.0831   -0.0051 N.am      1 <0>        -0.6727
     13 C10         1.1878   -0.6828    0.0067 C.ar      1 <0>         0.1796
     14 C11         0.0123   -0.0039    0.3004 C.ar      1 <0>        -0.1288
     15 C12        -0.0031    1.3763    0.3125 C.ar      1 <0>        -0.0354
     16 C13         1.1572    2.0863    0.0308 C.ar      1 <0>        -0.1525
     17 C14         2.3331    1.4071   -0.2626 C.ar      1 <0>        -0.0289
     18 C15         2.3480    0.0269   -0.2750 C.ar      1 <0>        -0.1536
     19 S2          1.1376    3.8482    0.0456 S.3       1 <0>         0.1107
     20 C16         1.6279    4.1456    1.7116 C.ar      1 <0>         0.2850
     21 N2          1.9806    3.1210    2.4752 N.ar      1 <0>        -0.5180
     22 C17         2.3537    3.3099    3.7297 C.ar      1 <0>         0.1628
     23 C18         2.3730    4.5978    4.2431 C.ar      1 <0>        -0.2385
     24 C19         1.9982    5.6461    3.4174 C.ar      1 <0>         0.1889
     25 N3          1.6407    5.3891    2.1701 N.ar      1 <0>        -0.5056
     26 C20         2.0045    7.0623    3.9325 C.3       1 <0>        -0.1081
     27 H1          1.4765  -11.1724    0.2541 H         1 <0>         0.0680
     28 H2          2.0726  -11.0276   -1.4168 H         1 <0>         0.0681
     29 H3          3.2141  -10.9396   -0.0539 H         1 <0>         0.0783
     30 H4          2.7490   -8.6838   -0.9723 H         1 <0>         0.0903
     31 H5          2.1529   -8.8286    0.6986 H         1 <0>         0.0902
     32 H6         -1.7415   -6.8587   -1.4680 H         1 <0>         0.1388
     33 H7         -1.8341   -4.4160   -1.2898 H         1 <0>         0.1448
     34 H8          2.2112   -4.3764    0.1471 H         1 <0>         0.1291
     35 H9          2.2911   -6.8199   -0.0252 H         1 <0>         0.1313
     36 H10         1.9878   -2.5620    0.3053 H         1 <0>         0.4117
     37 H11        -0.8897   -0.5559    0.5198 H         1 <0>         0.1445
     38 H12        -0.9183    1.9041    0.5366 H         1 <0>         0.1333
     39 H13         3.2352    1.9590   -0.4816 H         1 <0>         0.1329
     40 H14         3.2620   -0.5011   -0.5034 H         1 <0>         0.1317
     41 H15         2.6396    2.4711    4.3471 H         1 <0>         0.1694
     42 H16         2.6732    4.7801    5.2644 H         1 <0>         0.1483
     43 H17         2.9810    7.5109    3.7502 H         1 <0>         0.0877
     44 H18         1.2374    7.6399    3.4168 H         1 <0>         0.0844
     45 H19         1.7997    7.0604    5.0030 H         1 <0>         0.0829
@<TRIPOS>BOND
     1    1    2 1
     2    1   27 1
     3    1   28 1
     4    1   29 1
     5    2    3 1
     6    2   30 1
     7    2   31 1
     8    3    4 1
     9    4    9 ar
    10    4    5 ar
    11    5    6 ar
    12    5   32 1
    13    6    7 ar
    14    6   33 1
    15    7    8 ar
    16    7   10 1
    17    8    9 ar
    18    8   34 1
    19    9   35 1
    20   10   11 2
    21   10   12 am
    22   12   13 1
    23   12   36 1
    24   13   18 ar
    25   13   14 ar
    26   14   15 ar
    27   14   37 1
    28   15   16 ar
    29   15   38 1
    30   16   17 ar
    31   16   19 1
    32   17   18 ar
    33   17   39 1
    34   18   40 1
    35   19   20 1
    36   20   25 ar
    37   20   21 ar
    38   21   22 ar
    39   22   23 ar
    40   22   41 1
    41   23   24 ar
    42   23   42 1
    43   24   25 ar
    44   24   26 1
    45   26   43 1
    46   26   44 1
    47   26   45 1
@<TRIPOS>MOLECULE
ZINC07599286
   42    45     0     0     0
SMALL
USER_CHARGES
N-(4-benzofuran-2-ylthiazol-2-yl)-3-phenylsulfanyl-propanamide
@<TRIPOS>ATOM
      1 C1          8.2959    4.3448   -0.0533 C.ar      1 <0>        -0.1222
      2 C2          8.6970    3.0213   -0.0647 C.ar      1 <0>        -0.1010
      3 C3          7.7542    2.0124   -0.0612 C.ar      1 <0>        -0.0991
      4 C4          6.4009    2.3283   -0.0466 C.ar      1 <0>        -0.0841
      5 C5          6.0016    3.6594   -0.0413 C.ar      1 <0>        -0.1322
      6 C6          6.9501    4.6630   -0.0382 C.ar      1 <0>        -0.0999
      7 S1          5.1943    1.0443   -0.0419 S.3       1 <0>        -0.1093
      8 C7          3.6112    1.9298   -0.0221 C.3       1 <0>        -0.0997
      9 C8          2.4620    0.9199   -0.0165 C.3       1 <0>        -0.1164
     10 C9          1.1468    1.6555   -0.0000 C.2       1 <0>         0.5238
     11 O1          1.1304    2.8682    0.0067 O.2       1 <0>        -0.4928
     12 N1         -0.0111    0.9658    0.0074 N.am      1 <0>        -0.6070
     13 C10        -1.2236    1.6441    0.0168 C.2       1 <0>         0.3203
     14 N2         -2.4501    1.1587    0.0200 N.2       1 <0>        -0.5221
     15 C11        -3.5104    1.9639    0.0294 C.2       1 <0>         0.1376
     16 C12        -3.3187    3.3201    0.0358 C.2       1 <0>        -0.2156
     17 S2         -1.5328    3.4041    0.0357 S.3       1 <0>         0.1389
     18 C13        -4.8764    1.4017    0.0333 C.2       1 <0>         0.0891
     19 C14        -5.1748    0.0798    0.0221 C.2       1 <0>        -0.1549
     20 C15        -6.6370   -0.0064    0.0334 C.ar      1 <0>        -0.1340
     21 C16        -7.5497   -1.0623    0.0321 C.ar      1 <0>        -0.0672
     22 C17        -8.8913   -0.7983    0.0398 C.ar      1 <0>        -0.1353
     23 C18        -9.3494    0.5112    0.0490 C.ar      1 <0>        -0.0899
     24 C19        -8.4626    1.5676    0.0508 C.ar      1 <0>        -0.1072
     25 C20        -7.0957    1.3229    0.0431 C.ar      1 <0>         0.0597
     26 O2         -6.0124    2.1266    0.0426 O.3       1 <0>        -0.1869
     27 H1          9.0355    5.1318   -0.0557 H         1 <0>         0.1264
     28 H2          9.7488    2.7765   -0.0761 H         1 <0>         0.1295
     29 H3          8.0681    0.9791   -0.0701 H         1 <0>         0.1287
     30 H4          4.9508    3.9087   -0.0345 H         1 <0>         0.1250
     31 H5          6.6405    5.6976   -0.0290 H         1 <0>         0.1271
     32 H6          3.5365    2.5604   -0.9080 H         1 <0>         0.1007
     33 H7          3.5535    2.5509    0.8719 H         1 <0>         0.1007
     34 H8          2.5367    0.2893    0.8694 H         1 <0>         0.1189
     35 H9          2.5197    0.2988   -0.9104 H         1 <0>         0.1189
     36 H10         0.0021   -0.0041    0.0020 H         1 <0>         0.4308
     37 H11        -4.0459    4.1186    0.0436 H         1 <0>         0.2051
     38 H12        -4.4759   -0.7435    0.0094 H         1 <0>         0.1642
     39 H13        -7.1979   -2.0833    0.0247 H         1 <0>         0.1293
     40 H14        -9.5988   -1.6143    0.0385 H         1 <0>         0.1313
     41 H15       -10.4117    0.7055    0.0550 H         1 <0>         0.1371
     42 H16        -8.8306    2.5830    0.0587 H         1 <0>         0.1338
@<TRIPOS>BOND
     1    1    6 ar
     2    1    2 ar
     3    1   27 1
     4    2    3 ar
     5    2   28 1
     6    3    4 ar
     7    3   29 1
     8    4    5 ar
     9    4    7 1
    10    5    6 ar
    11    5   30 1
    12    6   31 1
    13    7    8 1
    14    8    9 1
    15    8   32 1
    16    8   33 1
    17    9   10 1
    18    9   34 1
    19    9   35 1
    20   10   11 2
    21   10   12 am
    22   12   13 1
    23   12   36 1
    24   13   17 1
    25   13   14 2
    26   14   15 1
    27   15   16 2
    28   15   18 1
    29   16   17 1
    30   16   37 1
    31   18   26 1
    32   18   19 2
    33   19   20 1
    34   19   38 1
    35   20   25 ar
    36   20   21 ar
    37   21   22 ar
    38   21   39 1
    39   22   23 ar
    40   22   40 1
    41   23   24 ar
    42   23   41 1
    43   24   25 ar
    44   24   42 1
    45   25   26 1
@<TRIPOS>MOLECULE
ZINC20133092
   41    42     0     0     0
SMALL
USER_CHARGES
(2S)-2-bromo-N-(6-dimethylamino-1,3-benzothiazol-2-yl)hexanamide
@<TRIPOS>ATOM
      1 C1         -0.7282    1.5849   -1.2398 C.3       1 <0>        -0.1549
      2 C2          0.0107    1.0833    0.0025 C.3       1 <0>        -0.1243
      3 C3         -0.7167    1.5670    1.2586 C.3       1 <0>        -0.1253
      4 C4          0.0222    1.0654    2.5009 C.3       1 <0>        -0.1136
      5 C5         -0.7053    1.5491    3.7570 C.3       1 <0>        -0.0774
      6 H1         -1.6484    0.9843    3.7184 H         1 <0>         0.1296
      7 C6         -0.0502    0.9547    4.9771 C.2       1 <0>         0.5073
      8 O1          1.1587    0.9473    5.0734 O.2       1 <0>        -0.4506
      9 N1         -0.8078    0.4314    5.9613 N.am      1 <0>        -0.6289
     10 C7         -0.2053   -0.1153    7.0835 C.2       1 <0>         0.3535
     11 N2          1.0720   -0.2139    7.3658 N.2       1 <0>        -0.4904
     12 C8          1.5222   -0.7768    8.5097 C.ar      1 <0>         0.0403
     13 C9          2.8616   -0.9433    8.9316 C.ar      1 <0>        -0.0131
     14 C10         3.1517   -1.5352   10.1208 C.ar      1 <0>        -0.1719
     15 C11         2.1483   -1.9988   10.9689 C.ar      1 <0>         0.2356
     16 C12         0.8203   -1.8527   10.5893 C.ar      1 <0>        -0.1484
     17 C13         0.5247   -1.2560    9.3890 C.ar      1 <0>        -0.0914
     18 S1         -0.9713   -0.8580    8.5173 S.3       1 <0>        -0.0056
     19 N3          2.4742   -2.6035   12.1879 N.pl3     1 <0>        -0.6290
     20 C14         1.4139   -2.9742   13.1283 C.3       1 <0>         0.0884
     21 C15         3.8759   -2.8659   12.5238 C.3       1 <0>         0.0890
     22 Br1        -0.6129    3.5105    3.8534 Br        1 <0>        -0.0696
     23 H2         -0.2052    1.2371   -2.1429 H         1 <0>         0.0552
     24 H3         -0.7544    2.6846   -1.2318 H         1 <0>         0.0557
     25 H4         -1.7563    1.1936   -1.2379 H         1 <0>         0.0542
     26 H5          0.0369   -0.0164   -0.0055 H         1 <0>         0.0620
     27 H6          1.0388    1.4745    0.0006 H         1 <0>         0.0648
     28 H7         -0.7429    2.6667    1.2666 H         1 <0>         0.0763
     29 H8         -1.7448    1.1758    1.2605 H         1 <0>         0.0665
     30 H9          0.0484   -0.0343    2.4929 H         1 <0>         0.0830
     31 H10         1.0503    1.4567    2.4990 H         1 <0>         0.0881
     32 H11        -1.9043    0.4382    5.8740 H         1 <0>         0.4555
     33 H12         3.6657   -0.5963    8.2997 H         1 <0>         0.1345
     34 H13         4.1847   -1.6483   10.4152 H         1 <0>         0.1337
     35 H14         0.0276   -2.2051   11.2326 H         1 <0>         0.1323
     36 H15         1.8609   -3.4330   14.0226 H         1 <0>         0.0783
     37 H16         0.7333   -3.6930   12.6487 H         1 <0>         0.0575
     38 H17         0.8514   -2.0749   13.4198 H         1 <0>         0.0580
     39 H18         3.9328   -3.3419   13.5139 H         1 <0>         0.0782
     40 H19         4.4327   -1.9174   12.5404 H         1 <0>         0.0586
     41 H20         4.3146   -3.5355   11.7693 H         1 <0>         0.0587
@<TRIPOS>BOND
     1    1    2 1
     2    1   23 1
     3    1   24 1
     4    1   25 1
     5    2    3 1
     6    2   26 1
     7    2   27 1
     8    3    4 1
     9    3   28 1
    10    3   29 1
    11    4    5 1
    12    4   30 1
    13    4   31 1
    14    5    6 1
    15    5    7 1
    16    5   22 1
    17    7    8 2
    18    7    9 am
    19    9   10 1
    20    9   32 1
    21   10   18 1
    22   10   11 2
    23   11   12 1
    24   12   17 ar
    25   12   13 ar
    26   13   14 ar
    27   13   33 1
    28   14   15 ar
    29   14   34 1
    30   15   16 ar
    31   15   19 1
    32   16   17 ar
    33   16   35 1
    34   17   18 1
    35   19   20 1
    36   19   21 1
    37   20   36 1
    38   20   37 1
    39   20   38 1
    40   21   39 1
    41   21   40 1
    42   21   41 1
@<TRIPOS>MOLECULE
ZINC26161488
   51    54     0     0     0
SMALL
USER_CHARGES
2-[4-(4-cyclohexylphenyl)thiazol-2-yl]-N-(2-furylmethyl)acetamide
@<TRIPOS>ATOM
      1 C1          9.0678   -3.0307   -3.1470 C.2       1 <0>        -0.2181
      2 C2          7.6542   -3.0092   -3.1337 C.2       1 <0>        -0.1804
      3 C3          7.2841   -1.7160   -3.1237 C.2       1 <0>        -0.0409
      4 O1          8.3923   -0.9574   -3.1361 O.3       1 <0>        -0.1718
      5 C4          9.4770   -1.7493   -3.1444 C.2       1 <0>        -0.0260
      6 C5          5.8665   -1.2051   -3.1078 C.3       1 <0>         0.2058
      7 N1          5.4200   -1.0465   -1.7216 N.am      1 <0>        -0.7379
      8 C6          4.1758   -0.5985   -1.4614 C.2       1 <0>         0.5222
      9 O2          3.4258   -0.3266   -2.3748 O.2       1 <0>        -0.5257
     10 C7          3.7166   -0.4354   -0.0353 C.3       1 <0>        -0.0529
     11 C8          2.2989    0.0755   -0.0195 C.2       1 <0>         0.1085
     12 N2          1.1803   -0.6075   -0.0125 N.2       1 <0>        -0.4900
     13 C9          0.0021   -0.0041    0.0020 C.2       1 <0>         0.1037
     14 C10        -0.0165    1.3648    0.0095 C.2       1 <0>        -0.2054
     15 S1          1.7351    1.7175   -0.0053 S.3       1 <0>         0.0689
     16 C11        -1.2583   -0.7864    0.0103 C.ar      1 <0>        -0.0295
     17 C12        -2.4881   -0.1312    0.0318 C.ar      1 <0>        -0.1010
     18 C13        -3.6575   -0.8641    0.0341 C.ar      1 <0>        -0.1150
     19 C14        -3.6104   -2.2466    0.0262 C.ar      1 <0>        -0.0681
     20 C15        -2.3925   -2.9022    0.0102 C.ar      1 <0>        -0.1202
     21 C16        -1.2168   -2.1795    0.0024 C.ar      1 <0>        -0.0813
     22 C17        -4.8908   -3.0413    0.0346 C.3       1 <0>        -0.0486
     23 C18        -5.7170   -2.6904   -1.2044 C.3       1 <0>        -0.1111
     24 C19        -7.0169   -3.4973   -1.1959 C.3       1 <0>        -0.1210
     25 C20        -7.8179   -3.1607    0.0635 C.3       1 <0>        -0.1217
     26 C21        -6.9917   -3.5116    1.3024 C.3       1 <0>        -0.1210
     27 C22        -5.6918   -2.7047    1.2939 C.3       1 <0>        -0.1106
     28 H1          9.6981   -3.9076   -3.1571 H         1 <0>         0.1517
     29 H2          6.9975   -3.8666   -3.1314 H         1 <0>         0.1511
     30 H3         10.5037   -1.4141   -3.1528 H         1 <0>         0.2061
     31 H4          5.8213   -0.2332   -3.6210 H         1 <0>         0.0859
     32 H5          5.2122   -1.9231   -3.6239 H         1 <0>         0.0999
     33 H6          6.1002   -1.2931   -0.8930 H         1 <0>         0.4282
     34 H7          3.7619   -1.4073    0.4779 H         1 <0>         0.1327
     35 H8          4.3709    0.2826    0.4808 H         1 <0>         0.1257
     36 H9         -0.8567    2.0433    0.0174 H         1 <0>         0.1989
     37 H10        -2.5260    0.9481    0.0425 H         1 <0>         0.1231
     38 H11        -4.6112   -0.3574    0.0463 H         1 <0>         0.1243
     39 H12        -2.3616   -3.9818    0.0041 H         1 <0>         0.1232
     40 H13        -0.2665   -2.6924   -0.0101 H         1 <0>         0.1307
     41 H14        -4.6402   -4.1123    0.0260 H         1 <0>         0.0781
     42 H15        -5.9523   -1.6159   -1.1959 H         1 <0>         0.0647
     43 H16        -5.1411   -2.9325   -2.1098 H         1 <0>         0.0635
     44 H17        -7.6109   -3.2449   -2.0866 H         1 <0>         0.0629
     45 H18        -6.7816   -4.5718   -1.2045 H         1 <0>         0.0623
     46 H19        -8.0533   -2.0862    0.0720 H         1 <0>         0.0616
     47 H20        -8.7525   -3.7408    0.0696 H         1 <0>         0.0613
     48 H21        -7.5676   -3.2695    2.2078 H         1 <0>         0.0629
     49 H22        -6.7563   -4.5861    1.2939 H         1 <0>         0.0623
     50 H23        -5.0978   -2.9571    2.1846 H         1 <0>         0.0633
     51 H24        -5.9272   -1.6302    1.3025 H         1 <0>         0.0647
@<TRIPOS>BOND
     1    1    5 2
     2    1    2 1
     3    1   28 1
     4    2    3 2
     5    2   29 1
     6    3    4 1
     7    3    6 1
     8    4    5 1
     9    5   30 1
    10    6    7 1
    11    6   31 1
    12    6   32 1
    13    7    8 am
    14    7   33 1
    15    8    9 2
    16    8   10 1
    17   10   11 1
    18   10   34 1
    19   10   35 1
    20   11   15 1
    21   11   12 2
    22   12   13 1
    23   13   14 2
    24   13   16 1
    25   14   15 1
    26   14   36 1
    27   16   21 ar
    28   16   17 ar
    29   17   18 ar
    30   17   37 1
    31   18   19 ar
    32   18   38 1
    33   19   20 ar
    34   19   22 1
    35   20   21 ar
    36   20   39 1
    37   21   40 1
    38   22   27 1
    39   22   23 1
    40   22   41 1
    41   23   24 1
    42   23   42 1
    43   23   43 1
    44   24   25 1
    45   24   44 1
    46   24   45 1
    47   25   26 1
    48   25   46 1
    49   25   47 1
    50   26   27 1
    51   26   48 1
    52   26   49 1
    53   27   50 1
    54   27   51 1
@<TRIPOS>MOLECULE
ZINC31178439
   52    53     0     0     0
SMALL
USER_CHARGES

@<TRIPOS>ATOM
      1 C1         -1.0828    2.6797   -3.8773 C.3       1 <0>        -0.1712
      2 C2         -0.3867    1.3173   -3.8844 C.3       1 <0>         0.1084
      3 N1         -0.6485    0.6286   -2.6181 N.am      1 <0>        -0.5944
      4 C3         -1.8180   -0.2439   -2.4870 C.3       1 <0>         0.1016
      5 C4         -1.4436   -1.6489   -2.8831 C.2       1 <0>         0.5040
      6 O1         -0.3112   -1.8970   -3.2399 O.2       1 <0>        -0.5089
      7 N2         -2.3670   -2.6297   -2.8409 N.am      1 <0>        -0.6832
      8 C5         -2.0492   -3.9120   -3.3092 C.ar      1 <0>         0.0628
      9 C6         -2.2481   -4.2346   -4.6463 C.ar      1 <0>         0.1370
     10 C7         -1.9333   -5.5014   -5.1046 C.ar      1 <0>        -0.1599
     11 C8         -1.4214   -6.4460   -4.2343 C.ar      1 <0>        -0.0526
     12 C9         -1.2221   -6.1289   -2.9033 C.ar      1 <0>        -0.1596
     13 C10        -1.5291   -4.8625   -2.4387 C.ar      1 <0>         0.1404
     14 F1         -1.3287   -4.5518   -1.1392 F         1 <0>        -0.1210
     15 F2         -2.7487   -3.3125   -5.4974 F         1 <0>        -0.1243
     16 C11         0.1866    0.7976   -1.5739 C.2       1 <0>         0.5543
     17 O2         -0.0301    0.2275   -0.5256 O.2       1 <0>        -0.5280
     18 C12         1.3897    1.6951   -1.7088 C.3       1 <0>        -0.1812
     19 H1          1.8619    1.7039   -2.6912 H         1 <0>         0.1241
     20 C13         1.3886    3.0024   -0.9138 C.3       1 <0>        -0.0841
     21 H2          0.5177    3.2132   -0.2932 H         1 <0>         0.1150
     22 C14         2.2980    1.8474   -0.4870 C.3       1 <0>        -0.0770
     23 C15         1.9154    1.0768    0.7782 C.3       1 <0>        -0.1040
     24 C16         3.7995    2.0009   -0.7378 C.3       1 <0>        -0.1194
     25 C17         2.0403    4.2036   -1.5489 C.2       1 <0>        -0.1416
     26 C18         1.9220    5.3837   -0.9926 C.2       1 <0>        -0.1162
     27 C19         1.1340    5.5400    0.2824 C.3       1 <0>        -0.1236
     28 C20         2.5737    6.5849   -1.6277 C.3       1 <0>        -0.1193
     29 H3         -0.8880    3.1921   -4.8195 H         1 <0>         0.0697
     30 H4         -2.1568    2.5383   -3.7559 H         1 <0>         0.0575
     31 H5         -0.6996    3.2793   -3.0517 H         1 <0>         0.0632
     32 H6         -0.7699    0.7177   -4.7101 H         1 <0>         0.0778
     33 H7          0.6873    1.4586   -4.0058 H         1 <0>         0.0839
     34 H8         -2.1620   -0.2374   -1.4527 H         1 <0>         0.1186
     35 H9         -2.6151    0.1167   -3.1372 H         1 <0>         0.1134
     36 H10        -3.2515   -2.4481   -2.4866 H         1 <0>         0.4139
     37 H11        -2.0879   -5.7530   -6.1435 H         1 <0>         0.1490
     38 H12        -1.1769   -7.4342   -4.5950 H         1 <0>         0.1498
     39 H13        -0.8220   -6.8694   -2.2266 H         1 <0>         0.1491
     40 H14         1.8998    0.0085    0.5622 H         1 <0>         0.0680
     41 H15         2.6461    1.2785    1.5614 H         1 <0>         0.0507
     42 H16         0.9276    1.3944    1.1123 H         1 <0>         0.0632
     43 H17         3.9779    2.8904   -1.3419 H         1 <0>         0.0636
     44 H18         4.3189    2.0990    0.2155 H         1 <0>         0.0654
     45 H19         4.1714    1.1226   -1.2655 H         1 <0>         0.0610
     46 H20         2.6051    4.0915   -2.4626 H         1 <0>         0.1124
     47 H21         1.7962    5.4050    1.1376 H         1 <0>         0.0696
     48 H22         0.6937    6.5365    0.3176 H         1 <0>         0.0614
     49 H23         0.3421    4.7917    0.3143 H         1 <0>         0.0655
     50 H24         2.1748    6.7260   -2.6322 H         1 <0>         0.0665
     51 H25         2.3670    7.4705   -1.0269 H         1 <0>         0.0627
     52 H26         3.6508    6.4269   -1.6834 H         1 <0>         0.0663
@<TRIPOS>BOND
     1    1    2 1
     2    1   29 1
     3    1   30 1
     4    1   31 1
     5    2    3 1
     6    2   32 1
     7    2   33 1
     8    3    4 1
     9    3   16 am
    10    4    5 1
    11    4   34 1
    12    4   35 1
    13    5    6 2
    14    5    7 am
    15    7    8 1
    16    7   36 1
    17    8   13 ar
    18    8    9 ar
    19    9   10 ar
    20    9   15 1
    21   10   11 ar
    22   10   37 1
    23   11   12 ar
    24   11   38 1
    25   12   13 ar
    26   12   39 1
    27   13   14 1
    28   16   17 2
    29   16   18 1
    30   18   19 1
    31   18   22 1
    32   18   20 1
    33   20   21 1
    34   20   22 1
    35   20   25 1
    36   22   23 1
    37   22   24 1
    38   23   40 1
    39   23   41 1
    40   23   42 1
    41   24   43 1
    42   24   44 1
    43   24   45 1
    44   25   26 2
    45   25   46 1
    46   26   27 1
    47   26   28 1
    48   27   47 1
    49   27   48 1
    50   27   49 1
    51   28   50 1
    52   28   51 1
    53   28   52 1
@<TRIPOS>MOLECULE
ZINC13216562
   60    63     0     0     0
SMALL
USER_CHARGES
(E)-2-[[5-(1,3-benzodioxol-5-yl)-1,3,4-oxadiazol-2-yl]sulfanyl]-3-(4-hexoxy-3-methoxy-phenyl)prop-2-enoic acid
@<TRIPOS>ATOM
      1 C1          4.8109    7.6623   -0.6913 C.3       1 <0>        -0.1530
      2 C2          4.8176    6.1377   -0.8201 C.3       1 <0>        -0.1265
      3 C3          3.5002    5.5747   -0.2832 C.3       1 <0>        -0.1184
      4 C4          3.5070    4.0501   -0.4120 C.3       1 <0>        -0.1186
      5 C5          2.1895    3.4871    0.1249 C.3       1 <0>        -0.1159
      6 C6          2.1963    1.9625   -0.0039 C.3       1 <0>         0.0571
      7 O1          0.9658    1.4367    0.4976 O.3       1 <0>        -0.3085
      8 C7          0.8089    0.0876    0.4557 C.ar      1 <0>         0.1159
      9 C8          1.8189   -0.7107   -0.0638 C.ar      1 <0>        -0.1945
     10 C9          1.6679   -2.0797   -0.1046 C.ar      1 <0>         0.0159
     11 C10         0.4893   -2.6676    0.3693 C.ar      1 <0>        -0.0572
     12 C11        -0.5305   -1.8611    0.8880 C.ar      1 <0>        -0.1463
     13 C12        -0.3681   -0.4900    0.9292 C.ar      1 <0>         0.0658
     14 O2         -1.3567    0.2967    1.4325 O.3       1 <0>        -0.3125
     15 C13        -2.5354   -0.3621    1.9000 C.3       1 <0>         0.0293
     16 C14         0.3229   -4.1266    0.3220 C.2       1 <0>         0.0001
     17 C15         1.3463   -4.9377    0.6865 C.2       1 <0>        -0.2061
     18 C16         2.5319   -4.3738    1.3414 C.2       1 <0>         0.4971
     19 O3          2.5467   -3.2027    1.6683 O.co2     1 <0>        -0.6059
     20 S1          1.2524   -6.6692    0.3737 S.3       1 <0>         0.1616
     21 C17         2.5607   -6.8405   -0.7941 C.2       1 <0>         0.1611
     22 N1          3.2683   -5.8660   -1.3163 N.2       1 <0>        -0.2529
     23 N2          4.1390   -6.3557   -2.1270 N.2       1 <0>        -0.2525
     24 C18         4.0162   -7.6607   -2.1624 C.2       1 <0>         0.1744
     25 O4          3.0144   -7.9952   -1.3193 O.3       1 <0>        -0.2091
     26 C19         4.8240   -8.5935   -2.9742 C.ar      1 <0>         0.0095
     27 C20         4.5848   -9.9676   -2.9072 C.ar      1 <0>        -0.0764
     28 C21         5.3364  -10.8362   -3.6701 C.ar      1 <0>        -0.0985
     29 C22         6.3388  -10.3508   -4.4974 C.ar      1 <0>         0.0463
     30 C23         6.5867   -8.9803   -4.5646 C.ar      1 <0>         0.0332
     31 C24         5.8327   -8.1039   -3.8064 C.ar      1 <0>        -0.0550
     32 O5          7.6108   -8.7650   -5.4415 O.3       1 <0>        -0.3035
     33 C25         7.7136   -9.9741   -6.2165 C.3       1 <0>         0.2126
     34 O6          7.2084  -10.9917   -5.3322 O.3       1 <0>        -0.3069
     35 H1          3.9799    8.0717   -1.2656 H         1 <0>         0.0527
     36 H2          4.6985    7.9378    0.3573 H         1 <0>         0.0531
     37 H3          5.7494    8.0634   -1.0738 H         1 <0>         0.0521
     38 H4          5.6487    5.7282   -0.2458 H         1 <0>         0.0616
     39 H5          4.9300    5.8622   -1.8687 H         1 <0>         0.0610
     40 H6          2.6692    5.9842   -0.8575 H         1 <0>         0.0620
     41 H7          3.3879    5.8502    0.7654 H         1 <0>         0.0626
     42 H8          4.3380    3.6407    0.1623 H         1 <0>         0.0661
     43 H9          3.6193    3.7746   -1.4606 H         1 <0>         0.0648
     44 H10         1.3585    3.8966   -0.4494 H         1 <0>         0.0710
     45 H11         2.0772    3.7626    1.1735 H         1 <0>         0.0720
     46 H12         3.0273    1.5531    0.5704 H         1 <0>         0.0620
     47 H13         2.3086    1.6870   -1.0525 H         1 <0>         0.0591
     48 H14         2.7271   -0.2578   -0.4331 H         1 <0>         0.1287
     49 H15         2.4569   -2.6985   -0.5058 H         1 <0>         0.1272
     50 H16        -1.4417   -2.3097    1.2553 H         1 <0>         0.1289
     51 H17        -3.2417    0.3790    2.2744 H         1 <0>         0.0926
     52 H18        -2.9913   -0.9167    1.0798 H         1 <0>         0.0497
     53 H19        -2.2724   -1.0512    2.7026 H         1 <0>         0.0510
     54 H20        -0.6147   -4.5529   -0.0030 H         1 <0>         0.1272
     55 H21         3.8082  -10.3496   -2.2611 H         1 <0>         0.1490
     56 H22         5.1469  -11.8983   -3.6203 H         1 <0>         0.1449
     57 H23         6.0240   -7.0422   -3.8573 H         1 <0>         0.1535
     58 H24         7.0988   -9.9070   -7.1140 H         1 <0>         0.0861
     59 H25         8.7528  -10.1747   -6.4771 H         1 <0>         0.1331
     60 O7          3.6056   -5.1544    1.5809 O.co2     1 <0>        -0.7336
@<TRIPOS>BOND
     1    1    2 1
     2    1   35 1
     3    1   36 1
     4    1   37 1
     5    2    3 1
     6    2   38 1
     7    2   39 1
     8    3    4 1
     9    3   40 1
    10    3   41 1
    11    4    5 1
    12    4   42 1
    13    4   43 1
    14    5    6 1
    15    5   44 1
    16    5   45 1
    17    6    7 1
    18    6   46 1
    19    6   47 1
    20    7    8 1
    21    8   13 ar
    22    8    9 ar
    23    9   10 ar
    24    9   48 1
    25   10   11 ar
    26   10   49 1
    27   11   12 ar
    28   11   16 1
    29   12   13 ar
    30   12   50 1
    31   13   14 1
    32   14   15 1
    33   15   51 1
    34   15   52 1
    35   15   53 1
    36   16   17 2
    37   16   54 1
    38   17   18 1
    39   17   20 1
    40   18   19 2
    41   18   60 1
    42   20   21 1
    43   21   25 1
    44   21   22 2
    45   22   23 1
    46   23   24 2
    47   24   25 1
    48   24   26 1
    49   26   31 ar
    50   26   27 ar
    51   27   28 ar
    52   27   55 1
    53   28   29 ar
    54   28   56 1
    55   29   34 1
    56   29   30 ar
    57   30   31 ar
    58   30   32 1
    59   31   57 1
    60   32   33 1
    61   33   34 1
    62   33   58 1
    63   33   59 1
@<TRIPOS>MOLECULE
ZINC33517296
   62    66     0     0     0
SMALL
USER_CHARGES
(2R)-2-(3-butoxyphenyl)-1-(6-ethoxy-1,3-benzothiazol-2-yl)-3-(furan-2-carbonyl)-4-hydroxy-2H-pyrrol-5-one
@<TRIPOS>ATOM
      1 C1          2.0885   -5.6152   -4.7259 C.3       1 <0>        -0.1527
      2 C2          2.7276   -4.2354   -4.8955 C.3       1 <0>        -0.1223
      3 C3          2.6923   -3.4894   -3.5602 C.3       1 <0>        -0.1200
      4 C4          3.3314   -2.1096   -3.7299 C.3       1 <0>         0.0586
      5 O1          3.2985   -1.4128   -2.4827 O.3       1 <0>        -0.3164
      6 C5          3.8306   -0.1625   -2.4603 C.ar      1 <0>         0.1270
      7 C6          4.3733    0.3825   -3.6151 C.ar      1 <0>        -0.2113
      8 C7          4.9131    1.6537   -3.5898 C.ar      1 <0>        -0.0804
      9 C8          4.9125    2.3831   -2.4149 C.ar      1 <0>        -0.1271
     10 C9          4.3720    1.8425   -1.2631 C.ar      1 <0>        -0.0302
     11 C10         3.8363    0.5690   -1.2817 C.ar      1 <0>        -0.1306
     12 C11         4.3725    2.6404    0.0153 C.3       1 <0>         0.2707
     13 H1          4.2143    1.9471    0.8545 H         1 <0>         0.0925
     14 C12         3.3135    3.7165   -0.0432 C.2       1 <0>        -0.4794
     15 C13         3.9547    4.9020    0.0788 C.2       1 <0>         0.2742
     16 C14         5.4041    4.6589    0.2113 C.2       1 <0>         0.5160
     17 O2          6.2474    5.5247    0.3382 O.2       1 <0>        -0.4848
     18 N1          5.6546    3.3376    0.1715 N.am      1 <0>        -0.5037
     19 C15         6.9001    2.7413    0.2660 C.2       1 <0>         0.4068
     20 N2          7.2059    1.4653    0.2393 N.2       1 <0>        -0.5387
     21 C16         8.4784    1.0210    0.3381 C.ar      1 <0>         0.0855
     22 C17         8.9402   -0.3155    0.3185 C.ar      1 <0>        -0.0337
     23 C18        10.2650   -0.5989    0.4367 C.ar      1 <0>        -0.1861
     24 C19        11.2158    0.4071    0.5810 C.ar      1 <0>         0.1297
     25 C20        10.8022    1.7311    0.6048 C.ar      1 <0>        -0.0908
     26 C21         9.4658    2.0218    0.4858 C.ar      1 <0>        -0.1417
     27 S1          8.5002    3.5128    0.4633 S.3       1 <0>         0.0577
     28 O3         12.5344    0.0960    0.6977 O.3       1 <0>        -0.3113
     29 C22        12.8793   -1.2903    0.6639 C.3       1 <0>         0.0520
     30 C23        14.3949   -1.4424    0.8081 C.3       1 <0>        -0.1541
     31 O4          3.3606    6.1185    0.0786 O.3       1 <0>        -0.6340
     32 C24         1.8682    3.5148   -0.1964 C.2       1 <0>         0.5477
     33 O5          1.3046    3.8902   -1.2094 O.2       1 <0>        -0.4462
     34 C25         1.1023    2.8617    0.8693 C.2       1 <0>        -0.0643
     35 C26        -0.2656    2.6959    0.9013 C.2       1 <0>        -0.1525
     36 C27        -0.5586    2.0246    2.0972 C.2       1 <0>        -0.2267
     37 C28         0.6155    1.8115    2.7339 C.2       1 <0>        -0.0275
     38 O6          1.6109    2.3157    1.9934 O.3       1 <0>        -0.1446
     39 H2          2.1139   -6.1515   -5.6860 H         1 <0>         0.0555
     40 H3          1.0448   -5.4981   -4.3988 H         1 <0>         0.0561
     41 H4          2.6474   -6.1878   -3.9711 H         1 <0>         0.0556
     42 H5          3.7713   -4.3525   -5.2226 H         1 <0>         0.0641
     43 H6          2.1688   -3.6627   -5.6503 H         1 <0>         0.0648
     44 H7          1.6486   -3.3724   -3.2331 H         1 <0>         0.0739
     45 H8          3.2511   -4.0620   -2.8054 H         1 <0>         0.0731
     46 H9          4.3751   -2.2267   -4.0571 H         1 <0>         0.0590
     47 H10         2.7725   -1.5370   -4.4847 H         1 <0>         0.0601
     48 H11         4.3740   -0.1868   -4.5328 H         1 <0>         0.1211
     49 H12         5.3357    2.0784   -4.4883 H         1 <0>         0.1201
     50 H13         5.3348    3.3770   -2.3973 H         1 <0>         0.1138
     51 H14         3.4181    0.1454   -0.3806 H         1 <0>         0.1271
     52 H15         8.2308   -1.1224    0.2085 H         1 <0>         0.1332
     53 H16        10.5870   -1.6296    0.4186 H         1 <0>         0.1332
     54 H17        11.5250    2.5259    0.7156 H         1 <0>         0.1375
     55 H18        12.3779   -1.8132    1.4917 H         1 <0>         0.0635
     56 H19        12.5566   -1.7252   -0.2935 H         1 <0>         0.0633
     57 H20        14.6604   -2.5096    0.7821 H         1 <0>         0.0782
     58 H21        14.7176   -1.0075    1.7656 H         1 <0>         0.0668
     59 H22        14.8963   -0.9195   -0.0197 H         1 <0>         0.0668
     60 H23        -0.9727    3.0162    0.1505 H         1 <0>         0.1540
     61 H24        -1.5385    1.7328    2.4449 H         1 <0>         0.1492
     62 H25         0.7315    1.3147    3.6858 H         1 <0>         0.2025
@<TRIPOS>BOND
     1    1    2 1
     2    1   39 1
     3    1   40 1
     4    1   41 1
     5    2    3 1
     6    2   42 1
     7    2   43 1
     8    3    4 1
     9    3   44 1
    10    3   45 1
    11    4    5 1
    12    4   46 1
    13    4   47 1
    14    5    6 1
    15    6   11 ar
    16    6    7 ar
    17    7    8 ar
    18    7   48 1
    19    8    9 ar
    20    8   49 1
    21    9   10 ar
    22    9   50 1
    23   10   11 ar
    24   10   12 1
    25   11   51 1
    26   12   13 1
    27   12   18 1
    28   12   14 1
    29   14   15 2
    30   14   32 1
    31   15   16 1
    32   15   31 1
    33   16   17 2
    34   16   18 am
    35   18   19 1
    36   19   27 1
    37   19   20 2
    38   20   21 1
    39   21   26 ar
    40   21   22 ar
    41   22   23 ar
    42   22   52 1
    43   23   24 ar
    44   23   53 1
    45   24   25 ar
    46   24   28 1
    47   25   26 ar
    48   25   54 1
    49   26   27 1
    50   28   29 1
    51   29   30 1
    52   29   55 1
    53   29   56 1
    54   30   57 1
    55   30   58 1
    56   30   59 1
    57   32   33 2
    58   32   34 1
    59   34   38 1
    60   34   35 2
    61   35   36 1
    62   35   60 1
    63   36   37 2
    64   36   61 1
    65   37   38 1
    66   37   62 1
@<TRIPOS>MOLECULE
ZINC36053226
   72    75     0     0     0
SMALL
USER_CHARGES

@<TRIPOS>ATOM
      1 C1         -0.0133    1.5483    0.2242 C.3       1 <0>        -0.0917
      2 C2         -0.0115    0.0425    0.1639 C.2       1 <0>         0.3010
      3 C3         -1.2098   -0.6451    0.1477 C.2       1 <0>        -0.3909
      4 C4         -1.1555   -2.1553    0.0861 C.3       1 <0>         0.2598
      5 H1         -1.6829   -2.5458    0.9565 H         1 <0>         0.0729
      6 N1          0.1922   -2.7830    0.0477 N.pl3     1 <0>        -0.5121
      7 C5          0.4792   -4.1323   -0.0100 C.2       1 <0>         0.2346
      8 C6          1.7803   -4.4958   -0.0377 C.2       1 <0>        -0.3052
      9 S1          2.6053   -2.9176    0.0184 S.3       1 <0>         0.1440
     10 C7          1.2544   -1.9230    0.0722 C.2       1 <0>         0.3197
     11 N2          1.1376   -0.6119    0.1212 N.2       1 <0>        -0.5960
     12 C8         -0.5927   -5.1377   -0.0399 C.2       1 <0>        -0.4693
     13 C9         -0.2905   -6.4471    0.0505 C.2       1 <0>         0.5031
     14 O1          0.9841   -6.8326    0.3028 O.3       1 <0>        -0.7029
     15 N3         -1.2821   -7.3995   -0.1143 N.pl3     1 <0>        -0.7561
     16 C10        -0.9357   -8.8229   -0.1272 C.3       1 <0>         0.1467
     17 C11        -2.1837   -9.6486   -0.4462 C.3       1 <0>         0.0464
     18 N4         -1.8364  -11.0758   -0.4592 N.3       1 <0>        -0.5324
     19 C12        -0.9260  -11.3864   -1.5710 C.3       1 <0>         0.0127
     20 C13        -0.5435  -12.8677   -1.5117 C.3       1 <0>         0.0640
     21 O2         -1.7314  -13.6633   -1.5462 O.3       1 <0>        -0.3886
     22 C14        -2.6404  -13.3874   -0.4771 C.3       1 <0>         0.0644
     23 C15        -3.0441  -11.9114   -0.5259 C.3       1 <0>         0.0180
     24 C16        -1.9073   -2.5968   -1.1430 C.ar      1 <0>        -0.0716
     25 C17        -1.3459   -2.4272   -2.3948 C.ar      1 <0>        -0.0894
     26 C18        -2.0355   -2.8322   -3.5223 C.ar      1 <0>        -0.1205
     27 C19        -3.2864   -3.4073   -3.3980 C.ar      1 <0>        -0.0785
     28 C20        -3.8475   -3.5777   -2.1462 C.ar      1 <0>        -0.1189
     29 C21        -3.1560   -3.1766   -1.0184 C.ar      1 <0>        -0.0731
     30 C22        -4.0386   -3.8479   -4.6273 C.3       1 <0>        -0.0537
     31 C23        -4.3115   -5.3512   -4.5466 C.3       1 <0>        -0.1417
     32 C24        -5.3663   -3.0923   -4.7109 C.3       1 <0>        -0.1411
     33 C25        -2.4338    0.0337    0.1874 C.2       1 <0>         0.5369
     34 O3         -2.4541    1.2512    0.2372 O.2       1 <0>        -0.5510
     35 O4         -3.5927   -0.6613    0.1706 O.3       1 <0>        -0.3487
     36 C26        -4.8039    0.0958    0.2134 C.3       1 <0>         0.0972
     37 C27        -5.9835   -0.8416    0.1868 C.2       1 <0>        -0.1452
     38 C28        -6.9875   -0.6544    1.0073 C.2       1 <0>        -0.1829
     39 H2          1.0138    1.9132    0.2241 H         1 <0>         0.0639
     40 H3         -0.5403    1.9460   -0.6431 H         1 <0>         0.0859
     41 H4         -0.5149    1.8747    1.1353 H         1 <0>         0.0861
     42 H5          2.2090   -5.4861   -0.0817 H         1 <0>         0.2318
     43 H6         -1.6226   -4.8264   -0.1342 H         1 <0>         0.0920
     44 H7         -2.2061   -7.1242   -0.2211 H         1 <0>         0.3832
     45 H8         -0.1757   -9.0049   -0.8870 H         1 <0>         0.0527
     46 H9         -0.5490   -9.1116    0.8501 H         1 <0>         0.0566
     47 H10        -2.9438   -9.4665    0.3136 H         1 <0>         0.0763
     48 H11        -2.5704   -9.3598   -1.4235 H         1 <0>         0.0369
     49 H12        -1.4232  -11.1765   -2.5180 H         1 <0>         0.0421
     50 H13        -0.0276  -10.7749   -1.4875 H         1 <0>         0.0949
     51 H14         0.0855  -13.1156   -2.3667 H         1 <0>         0.0978
     52 H15         0.0010  -13.0663   -0.5886 H         1 <0>         0.0612
     53 H16        -3.5279  -14.0112   -0.5837 H         1 <0>         0.0959
     54 H17        -2.1569  -13.6011    0.4761 H         1 <0>         0.0599
     55 H18        -3.6919  -11.6831    0.3205 H         1 <0>         0.0853
     56 H19        -3.5752  -11.7099   -1.4562 H         1 <0>         0.0412
     57 H20        -0.3686   -1.9779   -2.4919 H         1 <0>         0.1032
     58 H21        -1.5971   -2.6990   -4.5003 H         1 <0>         0.1122
     59 H22        -4.8249   -4.0267   -2.0492 H         1 <0>         0.1133
     60 H23        -3.5928   -3.3132   -0.0402 H         1 <0>         0.1170
     61 H24        -3.4423   -3.6339   -5.5143 H         1 <0>         0.0720
     62 H25        -4.9078   -5.5651   -3.6596 H         1 <0>         0.0555
     63 H26        -4.8556   -5.6699   -5.4357 H         1 <0>         0.0524
     64 H27        -3.3656   -5.8895   -4.4871 H         1 <0>         0.0564
     65 H28        -5.9626   -3.3062   -3.8239 H         1 <0>         0.0555
     66 H29        -5.1719   -2.0213   -4.7683 H         1 <0>         0.0540
     67 H30        -5.9104   -3.4110   -5.6000 H         1 <0>         0.0530
     68 H31        -4.8304    0.6874    1.1285 H         1 <0>         0.0644
     69 H32        -4.8480    0.7599   -0.6499 H         1 <0>         0.0689
     70 H33        -6.0012   -1.6677   -0.5086 H         1 <0>         0.1178
     71 H34        -7.8329   -1.3263    0.9883 H         1 <0>         0.1038
     72 H35        -6.9698    0.1717    1.7027 H         1 <0>         0.0971
@<TRIPOS>BOND
     1    1    2 1
     2    1   39 1
     3    1   40 1
     4    1   41 1
     5    2   11 1
     6    2    3 2
     7    3    4 1
     8    3   33 1
     9    4    5 1
    10    4    6 1
    11    4   24 1
    12    6   10 1
    13    6    7 1
    14    7    8 2
    15    7   12 1
    16    8    9 1
    17    8   42 1
    18    9   10 1
    19   10   11 2
    20   12   13 2
    21   12   43 1
    22   13   14 1
    23   13   15 1
    24   15   16 1
    25   15   44 1
    26   16   17 1
    27   16   45 1
    28   16   46 1
    29   17   18 1
    30   17   47 1
    31   17   48 1
    32   18   23 1
    33   18   19 1
    34   19   20 1
    35   19   49 1
    36   19   50 1
    37   20   21 1
    38   20   51 1
    39   20   52 1
    40   21   22 1
    41   22   23 1
    42   22   53 1
    43   22   54 1
    44   23   55 1
    45   23   56 1
    46   24   29 ar
    47   24   25 ar
    48   25   26 ar
    49   25   57 1
    50   26   27 ar
    51   26   58 1
    52   27   28 ar
    53   27   30 1
    54   28   29 ar
    55   28   59 1
    56   29   60 1
    57   30   31 1
    58   30   32 1
    59   30   61 1
    60   31   62 1
    61   31   63 1
    62   31   64 1
    63   32   65 1
    64   32   66 1
    65   32   67 1
    66   33   34 2
    67   33   35 1
    68   35   36 1
    69   36   37 1
    70   36   68 1
    71   36   69 1
    72   37   38 2
    73   37   70 1
    74   38   71 1
    75   38   72 1
@<TRIPOS>MOLECULE
ZINC40003117
   57    60     0     0     0
SMALL
USER_CHARGES

@<TRIPOS>ATOM
      1 C1         -1.3849    2.0482   -1.6812 C.3       1 <0>        -0.1510
      2 C2         -1.0804    0.5903   -1.3310 C.3       1 <0>         0.0547
      3 O1         -0.4552   -0.0470   -2.4469 O.3       1 <0>        -0.3192
      4 C3         -0.1170   -1.3550   -2.3005 C.ar      1 <0>         0.1244
      5 C4         -0.3865   -2.0133   -1.1094 C.ar      1 <0>        -0.2056
      6 C5         -0.0421   -3.3431   -0.9632 C.ar      1 <0>        -0.0586
      7 C6          0.5712   -4.0179   -2.0026 C.ar      1 <0>        -0.1063
      8 C7          0.8413   -3.3640   -3.1905 C.ar      1 <0>        -0.0529
      9 C8          0.4933   -2.0359   -3.3439 C.ar      1 <0>        -0.1495
     10 C9          0.9462   -5.4684   -1.8402 C.3       1 <0>         0.2698
     11 H1          0.9110   -5.7488   -0.7874 H         1 <0>         0.0887
     12 C10         0.0083   -6.3405   -2.6418 C.2       1 <0>        -0.4804
     13 C11         0.7681   -7.0016   -3.5473 C.2       1 <0>         0.2708
     14 C12         2.1798   -6.6028   -3.3797 C.2       1 <0>         0.5109
     15 O2          3.1066   -7.0226   -4.0446 O.2       1 <0>        -0.4856
     16 N1          2.2897   -5.7060   -2.3811 N.am      1 <0>        -0.4988
     17 C13         3.4657   -5.1104   -1.9407 C.2       1 <0>         0.3261
     18 N2          3.6626   -4.2309   -0.9711 N.2       1 <0>        -0.3110
     19 N3          4.8099   -3.7851   -0.6962 N.2       1 <0>        -0.2492
     20 C14         5.8894   -4.1705   -1.3622 C.2       1 <0>        -0.0297
     21 S1          5.1477   -5.3197   -2.5177 S.3       1 <0>         0.0826
     22 S2          7.5737   -3.6929   -1.1630 S.3       1 <0>         0.0301
     23 C15         7.5342   -2.5061    0.2083 C.3       1 <0>        -0.1462
     24 O3          0.3069   -7.8876   -4.4601 O.3       1 <0>        -0.6328
     25 C16        -1.4432   -6.4505   -2.4718 C.2       1 <0>         0.5088
     26 O4         -2.1891   -6.1004   -3.3676 O.2       1 <0>        -0.4682
     27 C17        -2.0006   -6.9859   -1.2141 C.ar      1 <0>        -0.1743
     28 C18        -1.1469   -7.4835   -0.2248 C.ar      1 <0>        -0.0267
     29 C19        -1.6708   -7.9815    0.9468 C.ar      1 <0>        -0.1654
     30 C20        -3.0468   -7.9905    1.1469 C.ar      1 <0>         0.1428
     31 C21        -3.8992   -7.4970    0.1655 C.ar      1 <0>        -0.2241
     32 C22        -3.3832   -6.9915   -1.0064 C.ar      1 <0>        -0.0307
     33 O5         -3.5591   -8.4826    2.3031 O.3       1 <0>        -0.3111
     34 C23        -4.9811   -8.4618    2.4432 C.3       1 <0>         0.0847
     35 C24        -5.3626   -9.0434    3.7801 C.2       1 <0>        -0.1535
     36 C25        -6.2601   -8.4443    4.5229 C.2       1 <0>        -0.1743
     37 H2         -0.4562    2.5657   -1.9217 H         1 <0>         0.0644
     38 H3         -2.0537    2.0833   -2.5412 H         1 <0>         0.0651
     39 H4         -1.8618    2.5343   -0.8300 H         1 <0>         0.0754
     40 H5         -0.4116    0.5552   -0.4710 H         1 <0>         0.0598
     41 H6         -2.0091    0.0728   -1.0905 H         1 <0>         0.0603
     42 H7         -0.8649   -1.4864   -0.2970 H         1 <0>         0.1240
     43 H8         -0.2518   -3.8560   -0.0362 H         1 <0>         0.1240
     44 H9          1.3207   -3.8932   -4.0007 H         1 <0>         0.1180
     45 H10         0.7005   -1.5268   -4.2735 H         1 <0>         0.1257
     46 H11         8.5443   -2.1490    0.4090 H         1 <0>         0.1128
     47 H12         6.8971   -1.6631   -0.0590 H         1 <0>         0.0908
     48 H13         7.1374   -2.9933    1.0990 H         1 <0>         0.0908
     49 H14        -0.0781   -7.4775   -0.3798 H         1 <0>         0.1395
     50 H15        -1.0121   -8.3660    1.7114 H         1 <0>         0.1320
     51 H16        -4.9674   -7.5061    0.3247 H         1 <0>         0.1270
     52 H17        -4.0457   -6.6043   -1.7664 H         1 <0>         0.1332
     53 H18        -5.3375   -7.4337    2.3792 H         1 <0>         0.0682
     54 H19        -5.4333   -9.0534    1.6472 H         1 <0>         0.0734
     55 H20        -4.8962   -9.9540    4.1258 H         1 <0>         0.1197
     56 H21        -6.5336   -8.8611    5.4810 H         1 <0>         0.1068
     57 H22        -6.7266   -7.5337    4.1772 H         1 <0>         0.0995
@<TRIPOS>BOND
     1    1    2 1
     2    1   37 1
     3    1   38 1
     4    1   39 1
     5    2    3 1
     6    2   40 1
     7    2   41 1
     8    3    4 1
     9    4    9 ar
    10    4    5 ar
    11    5    6 ar
    12    5   42 1
    13    6    7 ar
    14    6   43 1
    15    7    8 ar
    16    7   10 1
    17    8    9 ar
    18    8   44 1
    19    9   45 1
    20   10   11 1
    21   10   16 1
    22   10   12 1
    23   12   13 2
    24   12   25 1
    25   13   14 1
    26   13   24 1
    27   14   15 2
    28   14   16 am
    29   16   17 1
    30   17   21 1
    31   17   18 2
    32   18   19 1
    33   19   20 2
    34   20   21 1
    35   20   22 1
    36   22   23 1
    37   23   46 1
    38   23   47 1
    39   23   48 1
    40   25   26 2
    41   25   27 1
    42   27   32 ar
    43   27   28 ar
    44   28   29 ar
    45   28   49 1
    46   29   30 ar
    47   29   50 1
    48   30   31 ar
    49   30   33 1
    50   31   32 ar
    51   31   51 1
    52   32   52 1
    53   33   34 1
    54   34   35 1
    55   34   53 1
    56   34   54 1
    57   35   36 2
    58   35   55 1
    59   36   56 1
    60   36   57 1
@<TRIPOS>MOLECULE
ZINC40092226
   74    76     0     0     0
SMALL
USER_CHARGES

@<TRIPOS>ATOM
      1 C1         -1.0949    1.2134   -0.6152 C.3       1 <0>        -0.1488
      2 C2         -0.8959   -0.2974   -0.4787 C.3       1 <0>         0.0534
      3 O1         -0.2597   -0.8023   -1.6544 O.3       1 <0>        -0.3083
      4 C3         -0.0604   -2.1459   -1.7200 C.ar      1 <0>         0.0949
      5 C4         -0.5608   -2.9714   -0.7260 C.ar      1 <0>        -0.1657
      6 C5         -0.3577   -4.3371   -0.7944 C.ar      1 <0>        -0.0694
      7 C6          0.3445   -4.8825   -1.8531 C.ar      1 <0>        -0.0752
      8 C7          0.8468   -4.0645   -2.8479 C.ar      1 <0>        -0.1764
      9 C8          0.6415   -2.6954   -2.7886 C.ar      1 <0>         0.0929
     10 O2          1.1297   -1.8899   -3.7695 O.3       1 <0>        -0.3080
     11 C9          1.8401   -2.5233   -4.8355 C.3       1 <0>         0.0575
     12 C10         2.3094   -1.4647   -5.8354 C.3       1 <0>        -0.1121
     13 C11         3.0700   -2.1429   -6.9767 C.3       1 <0>        -0.0937
     14 C12         3.4311   -1.1020   -8.0383 C.3       1 <0>        -0.1458
     15 C13         4.3497   -2.7787   -6.4299 C.3       1 <0>        -0.1543
     16 C14        -0.9026   -5.2334    0.2876 C.3       1 <0>         0.2672
     17 H1         -1.5627   -4.6678    0.9453 H         1 <0>         0.0654
     18 C15         0.2317   -5.8360    1.0833 C.2       1 <0>        -0.5050
     19 C16         0.1404   -7.1783    0.9386 C.2       1 <0>         0.2644
     20 C17        -1.0154   -7.4960    0.0739 C.2       1 <0>         0.5160
     21 O3         -1.3614   -8.6166   -0.2437 O.2       1 <0>        -0.5227
     22 N1         -1.6294   -6.3603   -0.3090 N.am      1 <0>        -0.6106
     23 C18        -2.8121   -6.2653   -1.1683 C.3       1 <0>         0.1394
     24 C19        -2.3733   -6.1651   -2.6306 C.3       1 <0>         0.0496
     25 O4         -1.7218   -7.3770   -3.0166 O.3       1 <0>        -0.5517
     26 O5          0.9748   -8.0856    1.4965 O.3       1 <0>        -0.6563
     27 C20         1.2376   -5.1067    1.8622 C.2       1 <0>         0.5076
     28 O6          2.4042   -5.1223    1.5158 O.2       1 <0>        -0.4769
     29 C21         0.8353   -4.3538    3.0663 C.ar      1 <0>        -0.1678
     30 C22        -0.4831   -4.4217    3.5278 C.ar      1 <0>        -0.0285
     31 C23        -0.8541   -3.7180    4.6510 C.ar      1 <0>        -0.2220
     32 C24         0.0799   -2.9402    5.3268 C.ar      1 <0>         0.1396
     33 C25         1.3915   -2.8696    4.8711 C.ar      1 <0>        -0.1340
     34 C26         1.7725   -3.5753    3.7519 C.ar      1 <0>        -0.0371
     35 C27         2.3992   -2.0243    5.6068 C.3       1 <0>        -0.0999
     36 O7         -0.2899   -2.2480    6.4337 O.3       1 <0>        -0.3086
     37 C28        -1.6214   -2.4513    6.9112 C.3       1 <0>         0.0846
     38 C29        -1.8711   -1.5575    8.0986 C.2       1 <0>        -0.1526
     39 C30        -2.9724   -0.8514    8.1667 C.2       1 <0>        -0.1745
     40 H2         -0.1232    1.7059   -0.6527 H         1 <0>         0.0638
     41 H3         -1.6456    1.4261   -1.5315 H         1 <0>         0.0641
     42 H4         -1.6576    1.5847    0.2413 H         1 <0>         0.0746
     43 H5         -0.2710   -0.5046    0.3900 H         1 <0>         0.0607
     44 H6         -1.8644   -0.7816   -0.3533 H         1 <0>         0.0583
     45 H7         -1.1091   -2.5479    0.1025 H         1 <0>         0.1305
     46 H8          0.5014   -5.9499   -1.9028 H         1 <0>         0.1263
     47 H9          1.3954   -4.4930   -3.6737 H         1 <0>         0.1283
     48 H10         2.7044   -3.0513   -4.4328 H         1 <0>         0.0624
     49 H11         1.1831   -3.2326   -5.3389 H         1 <0>         0.0568
     50 H12         1.4451   -0.9367   -6.2381 H         1 <0>         0.0717
     51 H13         2.9664   -0.7554   -5.3321 H         1 <0>         0.0731
     52 H14         2.4429   -2.9146   -7.4231 H         1 <0>         0.0718
     53 H15         4.0582   -0.3302   -7.5919 H         1 <0>         0.0557
     54 H16         3.9729   -1.5851   -8.8514 H         1 <0>         0.0557
     55 H17         2.5195   -0.6490   -8.4279 H         1 <0>         0.0548
     56 H18         4.0924   -3.5203   -5.6736 H         1 <0>         0.0582
     57 H19         4.8915   -3.2619   -7.2429 H         1 <0>         0.0555
     58 H20         4.9768   -2.0070   -5.9835 H         1 <0>         0.0569
     59 H21        -3.4306   -7.1529   -1.0346 H         1 <0>         0.0832
     60 H22        -3.3862   -5.3786   -0.8997 H         1 <0>         0.0852
     61 H23        -3.2473   -6.0053   -3.2621 H         1 <0>         0.0435
     62 H24        -1.6836   -5.3290   -2.7465 H         1 <0>         0.0566
     63 H25        -1.4162   -7.3842   -3.9340 H         1 <0>         0.3680
     64 H26        -1.2092   -5.0252    3.0034 H         1 <0>         0.1367
     65 H27        -1.8721   -3.7697    5.0079 H         1 <0>         0.1268
     66 H28         2.7927   -3.5237    3.4014 H         1 <0>         0.1354
     67 H29         2.8896   -2.6268    6.3714 H         1 <0>         0.0646
     68 H30         3.1445   -1.6529    4.9035 H         1 <0>         0.0635
     69 H31         1.8923   -1.1820    6.0776 H         1 <0>         0.0663
     70 H32        -2.3317   -2.2114    6.1201 H         1 <0>         0.0678
     71 H33        -1.7460   -3.4928    7.2078 H         1 <0>         0.0719
     72 H34        -1.1422   -1.4992    8.8934 H         1 <0>         0.1186
     73 H35        -3.1148   -0.1497    8.9753 H         1 <0>         0.1064
     74 H36        -3.7380   -0.9709    7.4144 H         1 <0>         0.0995
@<TRIPOS>BOND
     1    1    2 1
     2    1   40 1
     3    1   41 1
     4    1   42 1
     5    2    3 1
     6    2   43 1
     7    2   44 1
     8    3    4 1
     9    4    9 ar
    10    4    5 ar
    11    5    6 ar
    12    5   45 1
    13    6    7 ar
    14    6   16 1
    15    7    8 ar
    16    7   46 1
    17    8    9 ar
    18    8   47 1
    19    9   10 1
    20   10   11 1
    21   11   12 1
    22   11   48 1
    23   11   49 1
    24   12   13 1
    25   12   50 1
    26   12   51 1
    27   13   14 1
    28   13   15 1
    29   13   52 1
    30   14   53 1
    31   14   54 1
    32   14   55 1
    33   15   56 1
    34   15   57 1
    35   15   58 1
    36   16   17 1
    37   16   22 1
    38   16   18 1
    39   18   19 2
    40   18   27 1
    41   19   20 1
    42   19   26 1
    43   20   21 2
    44   20   22 am
    45   22   23 1
    46   23   24 1
    47   23   59 1
    48   23   60 1
    49   24   25 1
    50   24   61 1
    51   24   62 1
    52   25   63 1
    53   27   28 2
    54   27   29 1
    55   29   34 ar
    56   29   30 ar
    57   30   31 ar
    58   30   64 1
    59   31   32 ar
    60   31   65 1
    61   32   33 ar
    62   32   36 1
    63   33   34 ar
    64   33   35 1
    65   34   66 1
    66   35   67 1
    67   35   68 1
    68   35   69 1
    69   36   37 1
    70   37   38 1
    71   37   70 1
    72   37   71 1
    73   38   39 2
    74   38   72 1
    75   39   73 1
    76   39   74 1
@<TRIPOS>MOLECULE
ZINC17271427
   58    60     0     0     0
SMALL
USER_CHARGES

@<TRIPOS>ATOM
      1 C1         -0.0712    1.4632   -0.0174 C.3       1 <0>        -0.1537
      2 C2         -0.0455   -0.0665   -0.0329 C.3       1 <0>        -0.1232
      3 C3          0.6790   -0.5517   -1.2902 C.3       1 <0>        -0.1168
      4 C4          0.7047   -2.0814   -1.3057 C.3       1 <0>        -0.0837
      5 C5          1.4182   -2.5593   -2.5440 C.ar      1 <0>        -0.0386
      6 C6          0.7073   -2.7845   -3.7079 C.ar      1 <0>        -0.1471
      7 C7          1.3618   -3.2229   -4.8438 C.ar      1 <0>         0.0131
      8 C8          2.7274   -3.4356   -4.8159 C.ar      1 <0>        -0.6473
      9 C9          3.4385   -3.2095   -3.6523 C.ar      1 <0>        -0.0242
     10 C10         2.7846   -2.7671   -2.5176 C.ar      1 <0>        -0.1501
     11 S1          3.5615   -3.9955   -6.2635 S.o2      1 <0>         2.6131
     12 O1          4.7495   -4.6396   -5.8242 O.2       1 <0>        -0.9725
     13 O2          2.5891   -4.6540   -7.0635 O.2       1 <0>        -0.9415
     14 C11         4.0663   -2.5650   -7.1600 C.ar      1 <0>        -0.8748
     15 C12         5.4073   -2.2814   -7.3413 C.ar      1 <0>         0.2709
     16 N1          5.7541   -1.1985   -8.0199 N.ar      1 <0>        -0.5867
     17 C13         4.8343   -0.3881   -8.5242 C.ar      1 <0>         0.3468
     18 N2          3.5396   -0.6260   -8.3711 N.ar      1 <0>        -0.6081
     19 C14         3.1225   -1.6971   -7.7072 C.ar      1 <0>         0.5076
     20 O3          1.7977   -1.9405   -7.5584 O.3       1 <0>        -0.6526
     21 S2          5.3456    1.0407   -9.4196 S.3       1 <0>         0.0494
     22 C15         3.7885    1.8317   -9.9100 C.3       1 <0>        -0.1460
     23 C16         4.0863    3.0837  -10.6942 C.2       1 <0>         0.5361
     24 O4          5.2358    3.4102  -10.9018 O.2       1 <0>        -0.4986
     25 N3          3.0753    3.8405  -11.1648 N.am      1 <0>        -0.6720
     26 C17         3.3495    5.0525  -11.8089 C.ar      1 <0>         0.1386
     27 C18         2.4887    6.1330  -11.6522 C.ar      1 <0>        -0.1134
     28 C19         2.7537    7.3330  -12.2856 C.ar      1 <0>        -0.1140
     29 C20         3.8747    7.4677  -13.0784 C.ar      1 <0>        -0.0928
     30 C21         4.7475    6.3876  -13.2433 C.ar      1 <0>        -0.1553
     31 C22         4.4815    5.1767  -12.5977 C.ar      1 <0>        -0.0641
     32 C23         5.9444    6.5270  -14.0886 C.2       1 <0>         0.3917
     33 O5          6.6995    5.5889  -14.2298 O.2       1 <0>        -0.4492
     34 C24         6.2312    7.8357  -14.7785 C.3       1 <0>        -0.2001
     35 H1          0.9502    1.8437   -0.0179 H         1 <0>         0.0538
     36 H2         -0.5948    1.8267   -0.9016 H         1 <0>         0.0543
     37 H3         -0.5873    1.8088    0.8783 H         1 <0>         0.0522
     38 H4          0.4781   -0.4301    0.8513 H         1 <0>         0.0606
     39 H5         -1.0669   -0.4471   -0.0325 H         1 <0>         0.0610
     40 H6          0.1554   -0.1882   -2.1743 H         1 <0>         0.0659
     41 H7          1.7004   -0.1712   -1.2906 H         1 <0>         0.0646
     42 H8          1.2283   -2.4450   -0.4215 H         1 <0>         0.0732
     43 H9         -0.3167   -2.4620   -1.3052 H         1 <0>         0.0738
     44 H10        -0.3597   -2.6183   -3.7297 H         1 <0>         0.1258
     45 H11         0.8062   -3.3995   -5.7529 H         1 <0>         0.1493
     46 H12         4.5054   -3.3761   -3.6304 H         1 <0>         0.1367
     47 H13         3.3408   -2.5869   -1.6095 H         1 <0>         0.1252
     48 H14         6.1637   -2.9357   -6.9337 H         1 <0>         0.1657
     49 H15         3.2109    1.1445  -10.5283 H         1 <0>         0.1273
     50 H16         3.2152    2.0886   -9.0193 H         1 <0>         0.1267
     51 H17         2.1576    3.5453  -11.0571 H         1 <0>         0.4172
     52 H18         1.6092    6.0344  -11.0333 H         1 <0>         0.1323
     53 H19         2.0804    8.1680  -12.1596 H         1 <0>         0.1334
     54 H20         4.0778    8.4067  -13.5717 H         1 <0>         0.1350
     55 H21         5.1537    4.3398  -12.7167 H         1 <0>         0.1534
     56 H22         5.4485    8.5541  -14.5350 H         1 <0>         0.0835
     57 H23         7.1944    8.2201  -14.4427 H         1 <0>         0.0944
     58 H24         6.2584    7.6796  -15.8569 H         1 <0>         0.0940
@<TRIPOS>BOND
     1    1    2 1
     2    1   35 1
     3    1   36 1
     4    1   37 1
     5    2    3 1
     6    2   38 1
     7    2   39 1
     8    3    4 1
     9    3   40 1
    10    3   41 1
    11    4    5 1
    12    4   42 1
    13    4   43 1
    14    5   10 ar
    15    5    6 ar
    16    6    7 ar
    17    6   44 1
    18    7    8 ar
    19    7   45 1
    20    8    9 ar
    21    8   11 1
    22    9   10 ar
    23    9   46 1
    24   10   47 1
    25   11   12 2
    26   11   13 2
    27   11   14 1
    28   14   19 ar
    29   14   15 ar
    30   15   48 1
    31   15   16 ar
    32   16   17 ar
    33   17   21 1
    34   17   18 ar
    35   18   19 ar
    36   19   20 1
    37   21   22 1
    38   22   23 1
    39   22   49 1
    40   22   50 1
    41   23   24 2
    42   23   25 am
    43   25   26 1
    44   25   51 1
    45   26   31 ar
    46   26   27 ar
    47   27   28 ar
    48   27   52 1
    49   28   29 ar
    50   28   53 1
    51   29   30 ar
    52   29   54 1
    53   30   31 ar
    54   30   32 1
    55   31   55 1
    56   32   33 2
    57   32   34 1
    58   34   56 1
    59   34   57 1
    60   34   58 1
@<TRIPOS>MOLECULE
ZINC30978420
   47    50     0     0     0
SMALL
USER_CHARGES
1-[[3-(3-bromophenyl)-1,2,4-oxadiazol-5-yl]methyl]-N-cyclopropyl-piperidine-4-carboxamide
@<TRIPOS>ATOM
      1 C1          4.4490   -4.1061   -7.1986 C.ar      1 <0>        -0.1087
      2 C2          3.3618   -3.7163   -6.4424 C.ar      1 <0>        -0.0626
      3 C3          3.5272   -3.4149   -5.0924 C.ar      1 <0>        -0.0420
      4 C4          4.7915   -3.5032   -4.5136 C.ar      1 <0>        -0.0445
      5 C5          5.8714   -3.8997   -5.2776 C.ar      1 <0>        -0.0971
      6 C6          5.7009   -4.1979   -6.6186 C.ar      1 <0>        -0.0577
      7 Br1         7.5870   -4.0278   -4.4927 Br        1 <0>        -0.0251
      8 C7          2.3616   -2.9953   -4.2748 C.2       1 <0>         0.2336
      9 N1          2.3763   -2.6746   -2.9613 N.2       1 <0>        -0.4265
     10 C8          1.1387   -2.3694   -2.6599 C.2       1 <0>         0.1031
     11 O1          0.4150   -2.5148   -3.7742 O.3       1 <0>         0.1176
     12 N2          1.1283   -2.8672   -4.6897 N.2       1 <0>        -0.3385
     13 C9          0.6260   -1.9412   -1.3090 C.3       1 <0>         0.1072
     14 N3          0.7064   -0.4787   -1.1959 N.4       1 <0>        -0.4033
     15 C10         0.0021   -0.0041    0.0020 C.3       1 <0>        -0.0016
     16 C11        -0.0187    1.5261    0.0104 C.3       1 <0>        -0.1285
     17 C12         1.4196    2.0513   -0.0005 C.3       1 <0>        -0.1206
     18 C13         2.1454    1.5033   -1.2324 C.3       1 <0>        -0.1371
     19 C14         2.1034   -0.0262   -1.2048 C.3       1 <0>        -0.0075
     20 C15         1.4055    3.5573   -0.0527 C.2       1 <0>         0.5169
     21 O2          0.3495    4.1533   -0.0787 O.2       1 <0>        -0.5320
     22 N4          2.5663    4.2419   -0.0706 N.am      1 <0>        -0.7266
     23 C16         2.5525    5.7060   -0.1214 C.3       1 <0>        -0.0267
     24 C17         3.5310    6.3888   -1.0791 C.3       1 <0>        -0.1378
     25 C18         3.7738    6.4435    0.4313 C.3       1 <0>        -0.1328
     26 H1          4.3215   -4.3396   -8.2453 H         1 <0>         0.1483
     27 H2          2.3847   -3.6447   -6.8967 H         1 <0>         0.1398
     28 H3          4.9260   -3.2663   -3.4685 H         1 <0>         0.1447
     29 H4          6.5487   -4.5029   -7.2140 H         1 <0>         0.1464
     30 H5         -0.4204   -2.2608   -1.1958 H         1 <0>         0.1734
     31 H6          1.2380   -2.4042   -0.5209 H         1 <0>         0.1730
     32 H7         -1.0301   -0.3844   -0.0048 H         1 <0>         0.1446
     33 H8          0.5211   -0.3682    0.9009 H         1 <0>         0.1360
     34 H9         -0.5507    1.8904   -0.8808 H         1 <0>         0.1005
     35 H10        -0.5336    1.8809    0.9154 H         1 <0>         0.1253
     36 H11         1.9425    1.7398    0.9158 H         1 <0>         0.1183
     37 H12         1.6490    1.8691   -2.1433 H         1 <0>         0.0956
     38 H13         3.1915    1.8434   -1.2231 H         1 <0>         0.1184
     39 H14         2.6125   -0.3903   -0.3002 H         1 <0>         0.1392
     40 H15         2.6116   -0.4226   -2.0962 H         1 <0>         0.1332
     41 H16         3.5241    3.7014   -0.0471 H         1 <0>         0.4056
     42 H17         1.4665    5.7275    0.0524 H         1 <0>         0.1565
     43 H18         3.9589    5.6398   -1.7617 H         1 <0>         0.1025
     44 H19         2.9990    7.1549   -1.6623 H         1 <0>         0.1114
     45 H20         3.4424    7.2548    1.0961 H         1 <0>         0.1133
     46 H21         4.4023    5.7397    0.9967 H         1 <0>         0.1047
     47 H22         0.2070   -0.0420   -2.0734 H         1 <0>         0.4479
@<TRIPOS>BOND
     1    1    6 ar
     2    1    2 ar
     3    1   26 1
     4    2    3 ar
     5    2   27 1
     6    3    4 ar
     7    3    8 1
     8    4    5 ar
     9    4   28 1
    10    5    6 ar
    11    5    7 1
    12    6   29 1
    13    8   12 2
    14    8    9 1
    15    9   10 2
    16   10   11 1
    17   10   13 1
    18   11   12 1
    19   13   14 1
    20   13   30 1
    21   13   31 1
    22   14   19 1
    23   14   15 1
    24   14   47 1
    25   15   16 1
    26   15   32 1
    27   15   33 1
    28   16   17 1
    29   16   34 1
    30   16   35 1
    31   17   18 1
    32   17   20 1
    33   17   36 1
    34   18   19 1
    35   18   37 1
    36   18   38 1
    37   19   39 1
    38   19   40 1
    39   20   21 2
    40   20   22 am
    41   22   23 1
    42   22   41 1
    43   23   25 1
    44   23   24 1
    45   23   42 1
    46   24   25 1
    47   24   43 1
    48   24   44 1
    49   25   45 1
    50   25   46 1
@<TRIPOS>MOLECULE
ZINC40037701
   61    64     0     0     0
SMALL
USER_CHARGES

@<TRIPOS>ATOM
      1 C1         -0.0187    1.5258    0.0104 C.3       1 <0>        -0.1507
      2 C2          0.0021   -0.0041    0.0020 C.3       1 <0>        -0.1090
      3 H1          0.5122   -0.3562   -0.8946 H         1 <0>         0.0908
      4 C3         -1.4343   -0.5350    0.0151 C.3       1 <0>        -0.1300
      5 C4         -1.4020   -2.0645    0.0857 C.3       1 <0>        -0.1101
      6 H2         -0.9208   -2.4601   -0.8088 H         1 <0>         0.0926
      7 C5         -0.6129   -2.4960    1.3237 C.3       1 <0>        -0.0049
      8 N1          0.7584   -1.9796    1.2388 N.4       1 <0>        -0.3805
      9 C6          0.7401   -0.5119    1.2425 C.3       1 <0>        -0.0108
     10 C7          1.5335   -2.4611    2.3901 C.3       1 <0>         0.0808
     11 C8          2.9712   -2.0344    2.2415 C.2       1 <0>         0.0249
     12 C9          3.4387   -0.9050    2.8277 C.2       1 <0>        -0.2622
     13 S1          5.1455   -0.9408    2.3049 S.3       1 <0>         0.2930
     14 C10         5.0851   -2.3653    1.4106 C.2       1 <0>         0.2615
     15 N2          3.8327   -2.7468    1.5394 N.2       1 <0>        -0.5585
     16 N3          6.1106   -2.9896    0.7101 N.am      1 <0>        -0.6125
     17 C11         7.3444   -2.4474    0.6960 C.2       1 <0>         0.5229
     18 O1          7.5599   -1.4148    1.2945 O.2       1 <0>        -0.4868
     19 C12         8.4562   -3.1242   -0.0635 C.3       1 <0>        -0.0965
     20 C13         8.6752   -4.5306    0.4988 C.3       1 <0>        -0.1300
     21 C14         9.7822   -5.2281   -0.2979 C.3       1 <0>         0.1129
     22 N4         10.9814   -4.3792   -0.2841 N.am      1 <0>        -0.6154
     23 C15        10.8622   -2.9810   -0.7195 C.3       1 <0>         0.1069
     24 C16         9.7431   -2.3088    0.0819 C.3       1 <0>        -0.1199
     25 C17        12.1681   -4.8736    0.1206 C.2       1 <0>         0.5484
     26 O2         12.2534   -6.0294    0.4781 O.2       1 <0>        -0.5332
     27 C18        13.3890   -3.9903    0.1291 C.3       1 <0>        -0.2030
     28 C19        14.4928   -4.3010   -0.8838 C.3       1 <0>        -0.1493
     29 C20        14.7063   -4.6103    0.5993 C.3       1 <0>        -0.1458
     30 C21        -2.8316   -2.6020    0.1769 C.3       1 <0>        -0.1508
     31 H3          1.0039    1.9031    0.0027 H         1 <0>         0.0674
     32 H4         -0.5459    1.8868   -0.8726 H         1 <0>         0.0774
     33 H5         -0.5289    1.8773    0.9072 H         1 <0>         0.0681
     34 H6         -1.9606   -0.1411    0.8845 H         1 <0>         0.0838
     35 H7         -1.9466   -0.2229   -0.8949 H         1 <0>         0.0942
     36 H8         -1.0951   -2.1001    2.2175 H         1 <0>         0.1305
     37 H9         -0.5882   -3.5844    1.3771 H         1 <0>         0.1315
     38 H10         1.7630   -0.1355    1.2357 H         1 <0>         0.1276
     39 H11         0.2298   -0.1583    2.1385 H         1 <0>         0.1304
     40 H12         1.1222   -2.0391    3.3070 H         1 <0>         0.1442
     41 H13         1.4801   -3.5488    2.4348 H         1 <0>         0.1430
     42 H14         2.9213   -0.1825    3.4415 H         1 <0>         0.2051
     43 H15         5.9382   -3.8154    0.2314 H         1 <0>         0.4297
     44 H16         8.1868   -3.1926   -1.1175 H         1 <0>         0.1159
     45 H17         8.9689   -4.4620    1.5463 H         1 <0>         0.0801
     46 H18         7.7515   -5.1034    0.4163 H         1 <0>         0.0820
     47 H19        10.0107   -6.1907    0.1596 H         1 <0>         0.1025
     48 H20         9.4530   -5.3788   -1.3260 H         1 <0>         0.0749
     49 H21        11.8032   -2.4610   -0.5402 H         1 <0>         0.0993
     50 H22        10.6210   -2.9485   -1.7820 H         1 <0>         0.0767
     51 H23         9.5794   -1.3001   -0.2974 H         1 <0>         0.0914
     52 H24        10.0267   -2.2610    1.1333 H         1 <0>         0.0818
     53 H25        13.2100   -2.9432    0.3736 H         1 <0>         0.1261
     54 H26        14.3359   -5.1443   -1.5563 H         1 <0>         0.1003
     55 H27        15.0402   -3.4582   -1.3061 H         1 <0>         0.1076
     56 H28        15.3942   -3.9710    1.1528 H         1 <0>         0.1063
     57 H29        14.6899   -5.6571    0.9025 H         1 <0>         0.1089
     58 H30        -3.3936   -2.2910   -0.7037 H         1 <0>         0.0774
     59 H31        -2.8080   -3.6906    0.2271 H         1 <0>         0.0687
     60 H32        -3.3117   -2.2073    1.0724 H         1 <0>         0.0678
     61 H33         1.1878   -2.3068    0.3863 H         1 <0>         0.4245
@<TRIPOS>BOND
     1    1    2 1
     2    1   31 1
     3    1   32 1
     4    1   33 1
     5    2    3 1
     6    2    9 1
     7    2    4 1
     8    4    5 1
     9    4   34 1
    10    4   35 1
    11    5    6 1
    12    5    7 1
    13    5   30 1
    14    7    8 1
    15    7   36 1
    16    7   37 1
    17    8    9 1
    18    8   10 1
    19    8   61 1
    20    9   38 1
    21    9   39 1
    22   10   11 1
    23   10   40 1
    24   10   41 1
    25   11   15 1
    26   11   12 2
    27   12   13 1
    28   12   42 1
    29   13   14 1
    30   14   15 2
    31   14   16 1
    32   16   17 am
    33   16   43 1
    34   17   18 2
    35   17   19 1
    36   19   24 1
    37   19   20 1
    38   19   44 1
    39   20   21 1
    40   20   45 1
    41   20   46 1
    42   21   22 1
    43   21   47 1
    44   21   48 1
    45   22   23 1
    46   22   25 am
    47   23   24 1
    48   23   49 1
    49   23   50 1
    50   24   51 1
    51   24   52 1
    52   25   26 2
    53   25   27 1
    54   27   29 1
    55   27   28 1
    56   27   53 1
    57   28   29 1
    58   28   54 1
    59   28   55 1
    60   29   56 1
    61   29   57 1
    62   30   58 1
    63   30   59 1
    64   30   60 1
@<TRIPOS>MOLECULE
ZINC56788986
   60    62     0     0     0
SMALL
USER_CHARGES

@<TRIPOS>ATOM
      1 C1          0.3089   -5.1605   -2.1097 C.3       1 <0>        -0.0827
      2 C2          0.5631   -3.8699   -1.3743 C.2       1 <0>         0.1067
      3 C3         -0.0490   -2.7171   -1.7365 C.2       1 <0>        -0.2659
      4 S1          0.6319   -1.5861   -0.5346 S.3       1 <0>         0.0679
      5 C4          1.6084   -2.6815    0.2894 C.2       1 <0>         0.3072
      6 N1          1.3888   -3.8139   -0.3441 N.2       1 <0>        -0.5799
      7 N2          2.4382   -2.4486    1.3749 N.pl3     1 <0>        -0.5678
      8 C5          2.5079   -1.0850    1.9215 C.3       1 <0>         0.1273
      9 C6          2.4850   -1.0632    3.4521 C.3       1 <0>        -0.1552
     10 C7          1.4825   -2.0700    3.9789 C.3       1 <0>         0.1102
     11 N3          2.1552   -3.3646    4.0865 N.am      1 <0>        -0.6064
     12 C8          2.3407   -4.2681    3.0050 C.3       1 <0>         0.1031
     13 C9          3.1914   -3.5646    1.9198 C.3       1 <0>         0.1222
     14 C10         2.6324   -3.7252    5.2943 C.2       1 <0>         0.6985
     15 O1          3.1105   -4.8317    5.4534 O.2       1 <0>        -0.5653
     16 N4          2.5795   -2.8593    6.3257 N.am      1 <0>        -0.7647
     17 C11         3.1940   -3.2097    7.6086 C.3       1 <0>         0.1385
     18 H1          4.0959   -3.7956    7.4314 H         1 <0>         0.1140
     19 C12         2.2067   -4.0320    8.4393 C.3       1 <0>        -0.1681
     20 C13         3.5570   -1.9311    8.3664 C.3       1 <0>        -0.0198
     21 N5          4.4096   -1.0857    7.5201 N.4       1 <0>        -0.3829
     22 C14         5.6821   -1.7728    7.2689 C.3       1 <0>        -0.0137
     23 C15         6.5416   -0.9325    6.3219 C.3       1 <0>        -0.1432
     24 C16         6.8139    0.4313    6.9631 C.3       1 <0>        -0.1351
     25 C17         5.4788    1.1070    7.2887 C.3       1 <0>        -0.1097
     26 H2          4.9286    1.2895    6.3657 H         1 <0>         0.0919
     27 C18         4.6587    0.1912    8.1999 C.3       1 <0>        -0.0077
     28 C19         5.7391    2.4365    7.9997 C.3       1 <0>        -0.1520
     29 H3         -0.5320   -5.6806   -1.6509 H         1 <0>         0.0759
     30 H4          0.0772   -4.9448   -3.1528 H         1 <0>         0.0770
     31 H5          1.1975   -5.7896   -2.0575 H         1 <0>         0.0744
     32 H6         -0.7545   -2.5328   -2.5332 H         1 <0>         0.1937
     33 H7          3.4279   -0.6135    1.5760 H         1 <0>         0.0745
     34 H8          1.6590   -0.5120    1.5482 H         1 <0>         0.0840
     35 H9          3.4769   -1.3096    3.8311 H         1 <0>         0.0708
     36 H10         2.2086   -0.0659    3.7945 H         1 <0>         0.0954
     37 H11         1.1270   -1.7569    4.9605 H         1 <0>         0.0796
     38 H12         0.6418   -2.1479    3.2895 H         1 <0>         0.0907
     39 H13         2.8589   -5.1599    3.3575 H         1 <0>         0.1149
     40 H14         1.3721   -4.5444    2.5883 H         1 <0>         0.0754
     41 H15         3.4200   -4.2741    1.1245 H         1 <0>         0.1005
     42 H16         4.1176   -3.1987    2.3630 H         1 <0>         0.0782
     43 H17         2.1346   -2.0040    6.2186 H         1 <0>         0.3938
     44 H18         1.9481   -4.9429    7.8994 H         1 <0>         0.0852
     45 H19         2.6639   -4.2928    9.3938 H         1 <0>         0.0791
     46 H20         1.3048   -3.4462    8.6165 H         1 <0>         0.0682
     47 H21         2.6465   -1.3889    8.6214 H         1 <0>         0.1378
     48 H22         4.0936   -2.1897    9.2793 H         1 <0>         0.1492
     49 H23         6.2113   -1.9125    8.2115 H         1 <0>         0.1324
     50 H24         5.4865   -2.7445    6.8155 H         1 <0>         0.1308
     51 H25         7.4867   -1.4435    6.1381 H         1 <0>         0.1139
     52 H26         6.0134   -0.7923    5.3788 H         1 <0>         0.0843
     53 H27         7.3867    0.2949    7.8804 H         1 <0>         0.0839
     54 H28         7.3780    1.0543    6.2690 H         1 <0>         0.0951
     55 H29         3.7075    0.6694    8.4338 H         1 <0>         0.1307
     56 H30         5.2097    0.0096    9.1227 H         1 <0>         0.1321
     57 H31         6.3263    3.0866    7.3511 H         1 <0>         0.0782
     58 H32         4.7884    2.9169    8.2312 H         1 <0>         0.0687
     59 H33         6.2879    2.2532    8.9234 H         1 <0>         0.0682
     60 H34         3.9440   -0.9127    6.6418 H         1 <0>         0.4158
@<TRIPOS>BOND
     1    1    2 1
     2    1   29 1
     3    1   30 1
     4    1   31 1
     5    2    6 1
     6    2    3 2
     7    3    4 1
     8    3   32 1
     9    4    5 1
    10    5    6 2
    11    5    7 1
    12    7   13 1
    13    7    8 1
    14    8    9 1
    15    8   33 1
    16    8   34 1
    17    9   10 1
    18    9   35 1
    19    9   36 1
    20   10   11 1
    21   10   37 1
    22   10   38 1
    23   11   12 1
    24   11   14 am
    25   12   13 1
    26   12   39 1
    27   12   40 1
    28   13   41 1
    29   13   42 1
    30   14   15 2
    31   14   16 am
    32   16   17 1
    33   16   43 1
    34   17   18 1
    35   17   19 1
    36   17   20 1
    37   19   44 1
    38   19   45 1
    39   19   46 1
    40   20   21 1
    41   20   47 1
    42   20   48 1
    43   21   27 1
    44   21   22 1
    45   21   60 1
    46   22   23 1
    47   22   49 1
    48   22   50 1
    49   23   24 1
    50   23   51 1
    51   23   52 1
    52   24   25 1
    53   24   53 1
    54   24   54 1
    55   25   26 1
    56   25   27 1
    57   25   28 1
    58   27   55 1
    59   27   56 1
    60   28   57 1
    61   28   58 1
    62   28   59 1
@<TRIPOS>MOLECULE
ZINC64237556
   61    64     0     0     0
SMALL
USER_CHARGES

@<TRIPOS>ATOM
      1 C1         -2.2705   -6.6821   -4.9001 C.3       1 <0>        -0.1311
      2 C2         -1.7196   -6.0566   -3.6446 C.ar      1 <0>        -0.0492
      3 C3         -2.0208   -6.6026   -2.4108 C.ar      1 <0>        -0.1058
      4 C4         -1.5155   -6.0289   -1.2591 C.ar      1 <0>        -0.0901
      5 C5         -0.7085   -4.9095   -1.3412 C.ar      1 <0>        -0.1498
      6 C6         -0.4066   -4.3641   -2.5750 C.ar      1 <0>        -0.1118
      7 C7         -0.9084   -4.9404   -3.7270 C.ar      1 <0>        -0.1034
      8 C8         -0.1584   -4.2835   -0.0856 C.3       1 <0>         0.0729
      9 C9          1.2910   -4.7308    0.1145 C.3       1 <0>         0.1256
     10 N1          1.3270   -6.1748    0.3589 N.am      1 <0>        -0.7438
     11 C10         2.4937   -6.7783    0.6609 C.2       1 <0>         0.7144
     12 O1          3.5291   -6.1411    0.6472 O.2       1 <0>        -0.5745
     13 N2          2.5126   -8.0880    0.9782 N.am      1 <0>        -0.6220
     14 C11         3.7582   -8.7338    1.4156 C.3       1 <0>         0.1146
     15 C12         3.5141   -9.3982    2.7762 C.3       1 <0>         0.0967
     16 N3          2.2894  -10.2061    2.6914 N.am      1 <0>        -0.6141
     17 C13         1.0438   -9.5604    2.2539 C.3       1 <0>         0.0939
     18 C14         1.2867   -8.8947    0.8987 C.3       1 <0>         0.0954
     19 C15         2.3083  -11.5159    3.0086 C.2       1 <0>         0.5468
     20 O2          3.3424  -12.0379    3.3680 O.2       1 <0>        -0.5265
     21 C16         1.0446  -12.3317    2.9168 C.3       1 <0>        -0.2030
     22 C17         0.4274  -12.8279    4.2259 C.3       1 <0>        -0.1498
     23 C18         1.1312  -13.8129    3.2904 C.3       1 <0>        -0.1442
     24 N4         -0.2070   -2.8202   -0.2062 N.4       1 <0>        -0.3888
     25 C19        -1.6175   -2.3560   -0.2442 C.3       1 <0>        -0.0007
     26 C20        -1.5146   -0.8734    0.1937 C.3       1 <0>        -0.1447
     27 C21        -0.4117   -0.9084    1.2764 C.3       1 <0>        -0.1429
     28 C22         0.3929   -2.1898    0.9897 C.3       1 <0>        -0.0148
     29 H1         -1.5757   -7.4389   -5.2641 H         1 <0>         0.0831
     30 H2         -3.2324   -7.1465   -4.6828 H         1 <0>         0.0767
     31 H3         -2.4020   -5.9133   -5.6615 H         1 <0>         0.0758
     32 H4         -2.6513   -7.4771   -2.3467 H         1 <0>         0.1377
     33 H5         -1.7514   -6.4550   -0.2952 H         1 <0>         0.1310
     34 H6          0.2236   -3.4894   -2.6391 H         1 <0>         0.1190
     35 H7         -0.6695   -4.5165   -4.6911 H         1 <0>         0.1362
     36 H8         -0.7570   -4.5977    0.7694 H         1 <0>         0.1470
     37 H9          1.8695   -4.4991   -0.7798 H         1 <0>         0.0882
     38 H10         1.7182   -4.2068    0.9695 H         1 <0>         0.0932
     39 H11         0.5112   -6.6967    0.3033 H         1 <0>         0.3993
     40 H12         4.0540   -9.4891    0.6875 H         1 <0>         0.0781
     41 H13         4.5448   -7.9851    1.5099 H         1 <0>         0.1106
     42 H14         4.3589  -10.0397    3.0269 H         1 <0>         0.1110
     43 H15         3.3942   -8.6313    3.5415 H         1 <0>         0.0744
     44 H16         0.2572  -10.3090    2.1596 H         1 <0>         0.1049
     45 H17         0.7480   -8.8051    2.9820 H         1 <0>         0.0753
     46 H18         0.4414   -8.2523    0.6517 H         1 <0>         0.0827
     47 H19         1.4024   -9.6617    0.1329 H         1 <0>         0.0832
     48 H20         0.3636  -12.0546    2.1121 H         1 <0>         0.1243
     49 H21         0.9353  -12.5642    5.1536 H         1 <0>         0.1006
     50 H22        -0.6600  -12.8771    4.2828 H         1 <0>         0.1072
     51 H23         0.5069  -14.5102    2.7318 H         1 <0>         0.1070
     52 H24         2.1023  -14.1972    3.6026 H         1 <0>         0.1102
     53 H25        -2.0203   -2.4318   -1.2542 H         1 <0>         0.1354
     54 H26        -2.2282   -2.9232    0.4583 H         1 <0>         0.1343
     55 H27        -1.2133   -0.2439   -0.6436 H         1 <0>         0.0989
     56 H28        -2.4589   -0.5295    0.6160 H         1 <0>         0.1185
     57 H29         0.2302   -0.0316    1.1911 H         1 <0>         0.1072
     58 H30        -0.8580   -0.9563    2.2697 H         1 <0>         0.1053
     59 H31         0.3261   -2.8683    1.8401 H         1 <0>         0.1327
     60 H32         1.4350   -1.9377    0.7933 H         1 <0>         0.1363
     61 H33         0.2807   -2.5228   -1.0379 H         1 <0>         0.4251
@<TRIPOS>BOND
     1    1    2 1
     2    1   29 1
     3    1   30 1
     4    1   31 1
     5    2    7 ar
     6    2    3 ar
     7    3    4 ar
     8    3   32 1
     9    4    5 ar
    10    4   33 1
    11    5    6 ar
    12    5    8 1
    13    6    7 ar
    14    6   34 1
    15    7   35 1
    16    8    9 1
    17    8   24 1
    18    8   36 1
    19    9   10 1
    20    9   37 1
    21    9   38 1
    22   10   11 am
    23   10   39 1
    24   11   12 2
    25   11   13 am
    26   13   18 1
    27   13   14 1
    28   14   15 1
    29   14   40 1
    30   14   41 1
    31   15   16 1
    32   15   42 1
    33   15   43 1
    34   16   17 1
    35   16   19 am
    36   17   18 1
    37   17   44 1
    38   17   45 1
    39   18   46 1
    40   18   47 1
    41   19   20 2
    42   19   21 1
    43   21   23 1
    44   21   22 1
    45   21   48 1
    46   22   23 1
    47   22   49 1
    48   22   50 1
    49   23   51 1
    50   23   52 1
    51   24   28 1
    52   24   25 1
    53   24   61 1
    54   25   26 1
    55   25   53 1
    56   25   54 1
    57   26   27 1
    58   26   55 1
    59   26   56 1
    60   27   28 1
    61   27   57 1
    62   27   58 1
    63   28   59 1
    64   28   60 1
@<TRIPOS>MOLECULE
ZINC67583168
   57    59     0     0     0
SMALL
USER_CHARGES

@<TRIPOS>ATOM
      1 C1         -0.0268    1.5367    0.0124 C.3       1 <0>        -0.1434
      2 C2         -0.0084    0.0069   -0.0010 C.3       1 <0>        -0.1302
      3 C3          0.7346   -0.5051    1.2346 C.3       1 <0>         0.2045
      4 H1          1.7284   -0.0589    1.2718 H         1 <0>         0.1008
      5 C4          0.8600   -2.0050    1.1598 C.ar      1 <0>        -0.1035
      6 C5         -0.2112   -2.8064    1.5079 C.ar      1 <0>        -0.1129
      7 C6         -0.0962   -4.1822    1.4393 C.ar      1 <0>        -0.1173
      8 C7          1.0898   -4.7567    1.0220 C.ar      1 <0>        -0.0785
      9 C8          2.1607   -3.9553    0.6730 C.ar      1 <0>        -0.1137
     10 C9          2.0443   -2.5794    0.7375 C.ar      1 <0>        -0.0997
     11 C10         1.2155   -6.2566    0.9481 C.3       1 <0>        -0.1204
     12 N1         -0.0114   -0.1370    2.4405 N.am      1 <0>        -0.7352
     13 C11         0.1646    1.0777    2.9973 C.2       1 <0>         0.7117
     14 O1          1.0110    1.8314    2.5570 O.2       1 <0>        -0.5668
     15 N2         -0.5976    1.4569    4.0422 N.am      1 <0>        -0.6373
     16 C12        -1.5403    0.5146    4.6613 C.3       1 <0>         0.0976
     17 C13        -1.2308    0.4258    6.1608 C.3       1 <0>         0.0851
     18 N3         -1.1337    1.7888    6.7018 N.pl3     1 <0>        -0.5392
     19 C14        -0.1910    2.7311    6.0827 C.3       1 <0>         0.0866
     20 C15        -0.4965    2.8182    4.5867 C.3       1 <0>         0.1157
     21 C16        -1.9171    2.1786    7.7758 C.ar      1 <0>         0.4854
     22 C17        -2.6552    1.2357    8.4948 C.ar      1 <0>        -0.2551
     23 C18        -3.4206    1.6742    9.5570 C.ar      1 <0>         0.2265
     24 N4         -3.4304    2.9654    9.8578 N.ar      1 <0>        -0.5435
     25 C19        -2.7231    3.8304    9.1595 C.ar      1 <0>         0.4406
     26 N5         -1.9742    3.4555    8.1421 N.ar      1 <0>        -0.5286
     27 C20        -2.7670    5.2883    9.5388 C.3       1 <0>        -0.1296
     28 C21        -4.2356    0.6970   10.3644 C.3       1 <0>        -0.1426
     29 H2          0.9964    1.9124    0.0027 H         1 <0>         0.0620
     30 H3         -0.5561    1.9014   -0.8678 H         1 <0>         0.0506
     31 H4         -0.5336    1.8861    0.9119 H         1 <0>         0.0498
     32 H5         -1.0316   -0.3689    0.0087 H         1 <0>         0.0640
     33 H6          0.4984   -0.3425   -0.9005 H         1 <0>         0.0772
     34 H7         -1.1379   -2.3575    1.8339 H         1 <0>         0.1154
     35 H8         -0.9329   -4.8083    1.7120 H         1 <0>         0.1240
     36 H9          3.0875   -4.4042    0.3473 H         1 <0>         0.1270
     37 H10         2.8798   -1.9532    0.4613 H         1 <0>         0.1266
     38 H11         0.9135   -6.5982   -0.0420 H         1 <0>         0.0746
     39 H12         2.2508   -6.5440    1.1314 H         1 <0>         0.0692
     40 H13         0.5731   -6.7126    1.7014 H         1 <0>         0.0677
     41 H14        -0.6321   -0.7675    2.8382 H         1 <0>         0.3924
     42 H15        -2.5604    0.8710    4.5188 H         1 <0>         0.0831
     43 H16        -1.4268   -0.4690    4.2055 H         1 <0>         0.1022
     44 H17        -2.0309   -0.1130    6.6683 H         1 <0>         0.1091
     45 H18        -0.2846   -0.0948    6.3089 H         1 <0>         0.1032
     46 H19        -0.3045    3.7147    6.5385 H         1 <0>         0.1211
     47 H20         0.8292    2.3747    6.2251 H         1 <0>         0.0967
     48 H21         0.3062    3.3555    4.0817 H         1 <0>         0.1215
     49 H22        -1.4406    3.3424    4.4388 H         1 <0>         0.0768
     50 H23        -2.6281    0.1899    8.2265 H         1 <0>         0.1843
     51 H24        -1.9803    5.4990   10.2633 H         1 <0>         0.1249
     52 H25        -2.6151    5.8998    8.6495 H         1 <0>         0.1259
     53 H26        -3.7372    5.5204    9.9781 H         1 <0>         0.1084
     54 H27        -3.6350    0.3196   11.1920 H         1 <0>         0.1189
     55 H28        -5.1203    1.1985   10.7567 H         1 <0>         0.1022
     56 H29        -4.5410   -0.1340    9.7286 H         1 <0>         0.1173
     57 H30        -3.9666    3.2781   10.6031 H         1 <0>         0.4468
@<TRIPOS>BOND
     1    1    2 1
     2    1   29 1
     3    1   30 1
     4    1   31 1
     5    2    3 1
     6    2   32 1
     7    2   33 1
     8    3    4 1
     9    3    5 1
    10    3   12 1
    11    5   10 ar
    12    5    6 ar
    13    6    7 ar
    14    6   34 1
    15    7    8 ar
    16    7   35 1
    17    8    9 ar
    18    8   11 1
    19    9   10 ar
    20    9   36 1
    21   10   37 1
    22   11   38 1
    23   11   39 1
    24   11   40 1
    25   12   13 am
    26   12   41 1
    27   13   14 2
    28   13   15 am
    29   15   20 1
    30   15   16 1
    31   16   17 1
    32   16   42 1
    33   16   43 1
    34   17   18 1
    35   17   44 1
    36   17   45 1
    37   18   19 1
    38   18   21 1
    39   19   20 1
    40   19   46 1
    41   19   47 1
    42   20   48 1
    43   20   49 1
    44   21   26 ar
    45   21   22 ar
    46   22   23 ar
    47   22   50 1
    48   23   24 ar
    49   23   28 1
    50   24   25 ar
    51   24   57 1
    52   25   26 ar
    53   25   27 1
    54   27   51 1
    55   27   52 1
    56   27   53 1
    57   28   54 1
    58   28   55 1
    59   28   56 1
@<TRIPOS>MOLECULE
ZINC20617414
   62    65     0     0     0
SMALL
USER_CHARGES
(2Z)-N-(4-chloro-2-methoxy-5-methyl-phenyl)-2-(3,5-dimethylphenyl)imino-5-(hydroxymethyl)-8-methyl-pyrano[6,5-c]pyridine-3-carboxamide
@<TRIPOS>ATOM
      1 C1         -1.6609    4.1573    0.4329 C.3       1 <0>        -0.1281
      2 C2         -1.4805    3.0526    1.4419 C.ar      1 <0>        -0.0586
      3 C3         -2.0275    1.8040    1.2037 C.ar      1 <0>        -0.0764
      4 C4         -1.8627    0.7823    2.1223 C.ar      1 <0>        -0.0578
      5 C5         -1.1601    1.0053    3.2881 C.ar      1 <0>        -0.0924
      6 C6         -0.6096    2.2649    3.5379 C.ar      1 <0>         0.0154
      7 C7         -0.7755    3.2901    2.6033 C.ar      1 <0>        -0.0918
      8 N1          0.0885    2.4930    4.6913 N.pl3     1 <0>        -0.5103
      9 C8         -0.5185    3.0130    5.7353 C.2       1 <0>         0.5240
     10 C9          0.2369    3.3638    6.9549 C.2       1 <0>        -0.2496
     11 C10        -0.2792    4.3690    7.7469 C.2       1 <0>         0.1501
     12 C11        -1.5340    4.9881    7.3150 C.ar      1 <0>        -0.1197
     13 C12        -2.0077    6.1731    7.8909 C.ar      1 <0>        -0.0591
     14 C13        -3.1956    6.7000    7.4280 C.ar      1 <0>         0.1423
     15 N2         -3.8772    6.1081    6.4643 N.ar      1 <0>        -0.4164
     16 C14        -3.4740    4.9918    5.8923 C.ar      1 <0>         0.1687
     17 C15        -2.2913    4.3859    6.2925 C.ar      1 <0>         0.0559
     18 O1         -1.8578    3.2368    5.7233 O.3       1 <0>        -0.1858
     19 C16        -4.3013    4.3697    4.7970 C.3       1 <0>        -0.1179
     20 C17        -1.2380    6.8569    8.9913 C.3       1 <0>         0.1171
     21 O2         -1.9352    8.0359    9.3986 O.3       1 <0>        -0.5965
     22 C18         1.4902    2.6722    7.3067 C.2       1 <0>         0.5741
     23 O3          2.0923    2.9812    8.3173 O.2       1 <0>        -0.4691
     24 N3          1.9690    1.6975    6.5085 N.am      1 <0>        -0.6692
     25 C19         3.2170    1.1211    6.7783 C.ar      1 <0>         0.1059
     26 C20         4.1729    1.8331    7.4883 C.ar      1 <0>        -0.0766
     27 C21         5.4034    1.2629    7.7534 C.ar      1 <0>        -0.0818
     28 C22         5.6855   -0.0180    7.3121 C.ar      1 <0>        -0.0026
     29 C23         4.7369   -0.7338    6.6038 C.ar      1 <0>        -0.1729
     30 C24         3.4992   -0.1705    6.3390 C.ar      1 <0>         0.1156
     31 O4          2.5637   -0.8749    5.6479 O.3       1 <0>        -0.3253
     32 C25         2.9227   -2.1931    5.2291 C.3       1 <0>         0.0199
     33 Cl1         7.2334   -0.7285    7.6484 Cl        1 <0>        -0.0419
     34 C26         6.4407    2.0379    8.5244 C.3       1 <0>        -0.1279
     35 C27        -2.4569   -0.5757    1.8508 C.3       1 <0>        -0.1281
     36 H1         -2.2450    3.7825   -0.4206 H         1 <0>         0.0801
     37 H2         -0.6756    4.4976    0.0818 H         1 <0>         0.0813
     38 H3         -2.1938    4.9980    0.9011 H         1 <0>         0.0801
     39 H4         -2.5824    1.6250    0.2946 H         1 <0>         0.1435
     40 H5         -1.0362    0.2082    4.0062 H         1 <0>         0.1394
     41 H6         -0.3523    4.2661    2.7897 H         1 <0>         0.1360
     42 H7          0.2207    4.6837    8.6510 H         1 <0>         0.2013
     43 H8         -3.5753    7.6132    7.8620 H         1 <0>         0.1976
     44 H9         -3.8104    3.4509    4.4436 H         1 <0>         0.0824
     45 H10        -4.3967    5.0790    3.9617 H         1 <0>         0.1005
     46 H11        -5.3006    4.1251    5.1863 H         1 <0>         0.1029
     47 H12        -1.1395    6.1746    9.8485 H         1 <0>         0.0804
     48 H13        -0.2380    7.1307    8.6238 H         1 <0>         0.0781
     49 H14        -1.5231    8.6703   10.1972 H         1 <0>         0.4393
     50 H15         1.3799    1.3546    5.6452 H         1 <0>         0.4101
     51 H16         3.9551    2.8328    7.8342 H         1 <0>         0.1629
     52 H17         4.9597   -1.7334    6.2609 H         1 <0>         0.1508
     53 H18         2.0813   -2.6468    4.6849 H         1 <0>         0.1098
     54 H19         3.1620   -2.8055    6.1109 H         1 <0>         0.0661
     55 H20         3.8012   -2.1416    4.5691 H         1 <0>         0.0656
     56 H21         7.3477    1.4257    8.6361 H         1 <0>         0.0809
     57 H22         6.0447    2.2916    9.5188 H         1 <0>         0.0809
     58 H23         6.6868    2.9621    7.9810 H         1 <0>         0.0792
     59 H24        -2.2236   -1.2517    2.6866 H         1 <0>         0.0730
     60 H25        -2.0326   -0.9823    0.9209 H         1 <0>         0.0846
     61 H26        -3.5481   -0.4843    1.7467 H         1 <0>         0.0843
     62 H27         1.1580    2.2414    4.7457 H         1 <0>         0.4755
@<TRIPOS>BOND
     1    1    2 1
     2    1   36 1
     3    1   37 1
     4    1   38 1
     5    2    7 ar
     6    2    3 ar
     7    3    4 ar
     8    3   39 1
     9    4    5 ar
    10    4   35 1
    11    5    6 ar
    12    5   40 1
    13    6    7 ar
    14    6    8 1
    15    7   41 1
    16    8    9 2
    17    8   62 1
    18    9   18 1
    19    9   10 1
    20   10   11 2
    21   10   22 1
    22   11   12 1
    23   11   42 1
    24   12   17 ar
    25   12   13 ar
    26   13   14 ar
    27   13   20 1
    28   14   15 ar
    29   14   43 1
    30   15   16 ar
    31   16   17 ar
    32   16   19 1
    33   17   18 1
    34   19   44 1
    35   19   45 1
    36   19   46 1
    37   20   21 1
    38   20   47 1
    39   20   48 1
    40   21   49 1
    41   22   23 2
    42   22   24 am
    43   24   25 1
    44   24   50 1
    45   25   30 ar
    46   25   26 ar
    47   26   27 ar
    48   26   51 1
    49   27   28 ar
    50   27   34 1
    51   28   29 ar
    52   28   33 1
    53   29   30 ar
    54   29   52 1
    55   30   31 1
    56   31   32 1
    57   32   53 1
    58   32   54 1
    59   32   55 1
    60   34   56 1
    61   34   57 1
    62   34   58 1
    63   35   59 1
    64   35   60 1
    65   35   61 1
@<TRIPOS>MOLECULE
ZINC34681236
   63    66     0     0     0
SMALL
USER_CHARGES

@<TRIPOS>ATOM
      1 C1         -0.9488    1.1910   -0.3249 C.3       1 <0>        -0.1208
      2 C2         -1.4381   -0.1691    0.1013 C.ar      1 <0>        -0.0618
      3 C3         -2.5404   -0.7315   -0.5163 C.ar      1 <0>        -0.1247
      4 C4         -2.9925   -1.9791   -0.1281 C.ar      1 <0>        -0.0989
      5 C5         -2.3440   -2.6679    0.8784 C.ar      1 <0>        -0.1300
      6 C6         -1.2368   -2.1063    1.5002 C.ar      1 <0>         0.1487
      7 C7         -0.7820   -0.8551    1.1043 C.ar      1 <0>        -0.1101
      8 C8          0.4228   -0.2442    1.7725 C.3       1 <0>        -0.1195
      9 N1         -0.5776   -2.8015    2.5201 N.am      1 <0>        -0.6616
     10 C9         -0.6560   -4.1457    2.5791 C.2       1 <0>         0.7084
     11 O1         -1.2080   -4.7622    1.6882 O.2       1 <0>        -0.5467
     12 N2         -0.1226   -4.8065    3.6257 N.am      1 <0>        -0.6726
     13 C10        -0.0962   -6.2085    3.6298 C.ar      1 <0>         0.1405
     14 C11        -0.0911   -6.9175    2.4296 C.ar      1 <0>         0.0251
     15 C12        -0.0642   -8.2990    2.4808 C.ar      1 <0>        -0.1715
     16 C13        -0.0433   -8.9312    3.7198 C.ar      1 <0>         0.4240
     17 N3         -0.0489   -8.2256    4.8394 N.ar      1 <0>        -0.4854
     18 C14        -0.0690   -6.9060    4.8272 C.ar      1 <0>         0.0896
     19 N4         -0.0166  -10.3219    3.7826 N.pl3     1 <0>        -0.5790
     20 C15        -0.1302  -10.9641    5.1008 C.3       1 <0>         0.0993
     21 C16        -1.0696  -12.1729    5.0869 C.3       1 <0>        -0.1633
     22 C17        -2.2971  -11.8771    4.2491 C.3       1 <0>         0.1042
     23 N5         -1.9850  -12.2039    2.8578 N.am      1 <0>        -0.6035
     24 C18        -1.2929  -11.3422    1.9640 C.3       1 <0>         0.0866
     25 C19         0.1162  -11.0663    2.5425 C.3       1 <0>         0.0906
     26 C20        -2.3806  -13.4049    2.3914 C.2       1 <0>         0.5578
     27 O2         -2.0666  -13.7551    1.2704 O.2       1 <0>        -0.4940
     28 C21        -3.1957  -14.2956    3.2423 C.ar      1 <0>        -0.1268
     29 C22        -2.7401  -14.6646    4.5100 C.ar      1 <0>        -0.0769
     30 C23        -3.5050  -15.4961    5.2994 C.ar      1 <0>        -0.1088
     31 C24        -4.7241  -15.9668    4.8384 C.ar      1 <0>        -0.0023
     32 C25        -5.1822  -15.6059    3.5830 C.ar      1 <0>        -0.1027
     33 C26        -4.4286  -14.7681    2.7848 C.ar      1 <0>         0.0162
     34 Cl1        -5.0075  -14.3098    1.2137 Cl        1 <0>        -0.0272
     35 Cl2        -5.6807  -17.0141    5.8393 Cl        1 <0>        -0.0358
     36 H1         -0.2199    1.0797   -1.1277 H         1 <0>         0.0752
     37 H2         -1.7910    1.7857   -0.6787 H         1 <0>         0.0720
     38 H3         -0.4815    1.6913    0.5233 H         1 <0>         0.0708
     39 H4         -3.0494   -0.1948   -1.3033 H         1 <0>         0.1276
     40 H5         -3.8538   -2.4154   -0.6121 H         1 <0>         0.1288
     41 H6         -2.6981   -3.6421    1.1817 H         1 <0>         0.1439
     42 H7          0.1023    0.3422    2.6336 H         1 <0>         0.0741
     43 H8          1.0958   -1.0358    2.1021 H         1 <0>         0.0596
     44 H9          0.9416    0.4027    1.0651 H         1 <0>         0.0792
     45 H10        -0.0643   -2.3160    3.1847 H         1 <0>         0.4134
     46 H11         0.2429   -4.3123    4.3760 H         1 <0>         0.4224
     47 H12        -0.1081   -6.3999    1.4819 H         1 <0>         0.1917
     48 H13        -0.0598   -8.8799    1.5704 H         1 <0>         0.1851
     49 H14        -0.0686   -6.3636    5.7611 H         1 <0>         0.2058
     50 H15         0.8595  -11.2907    5.4201 H         1 <0>         0.0977
     51 H16        -0.5063  -10.2339    5.8173 H         1 <0>         0.0773
     52 H17        -0.5456  -13.0321    4.6680 H         1 <0>         0.0916
     53 H18        -1.3762  -12.4032    6.1072 H         1 <0>         0.1109
     54 H19        -3.1329  -12.4869    4.5922 H         1 <0>         0.1044
     55 H20        -2.5531  -10.8207    4.3309 H         1 <0>         0.0793
     56 H21        -1.2027  -11.8215    0.9892 H         1 <0>         0.1281
     57 H22        -1.8377  -10.4033    1.8648 H         1 <0>         0.0773
     58 H23         0.6925  -10.4817    1.8254 H         1 <0>         0.1099
     59 H24         0.6222  -12.0120    2.7365 H         1 <0>         0.1109
     60 H25        -1.7899  -14.2994    4.8708 H         1 <0>         0.1478
     61 H26        -3.1533  -15.7818    6.2798 H         1 <0>         0.1506
     62 H27        -6.1328  -15.9766    3.2290 H         1 <0>         0.1559
     63 H28        -0.0339   -8.6902    5.6908 H         1 <0>         0.4418
@<TRIPOS>BOND
     1    1    2 1
     2    1   36 1
     3    1   37 1
     4    1   38 1
     5    2    7 ar
     6    2    3 ar
     7    3    4 ar
     8    3   39 1
     9    4    5 ar
    10    4   40 1
    11    5    6 ar
    12    5   41 1
    13    6    7 ar
    14    6    9 1
    15    7    8 1
    16    8   42 1
    17    8   43 1
    18    8   44 1
    19    9   10 am
    20    9   45 1
    21   10   11 2
    22   10   12 am
    23   12   13 1
    24   12   46 1
    25   13   18 ar
    26   13   14 ar
    27   14   15 ar
    28   14   47 1
    29   15   16 ar
    30   15   48 1
    31   16   17 ar
    32   16   19 1
    33   17   18 ar
    34   17   63 1
    35   18   49 1
    36   19   25 1
    37   19   20 1
    38   20   21 1
    39   20   50 1
    40   20   51 1
    41   21   22 1
    42   21   52 1
    43   21   53 1
    44   22   23 1
    45   22   54 1
    46   22   55 1
    47   23   24 1
    48   23   26 am
    49   24   25 1
    50   24   56 1
    51   24   57 1
    52   25   58 1
    53   25   59 1
    54   26   27 2
    55   26   28 1
    56   28   33 ar
    57   28   29 ar
    58   29   30 ar
    59   29   60 1
    60   30   31 ar
    61   30   61 1
    62   31   32 ar
    63   31   35 1
    64   32   33 ar
    65   32   62 1
    66   33   34 1
@<TRIPOS>MOLECULE
ZINC38547447
   58    63     0     0     0
SMALL
USER_CHARGES

@<TRIPOS>ATOM
      1 C1          3.4378   -4.0554    1.8815 C.ar      1 <0>         0.0387
      2 C2          4.5758   -3.2687    1.7593 C.ar      1 <0>        -0.1645
      3 C3          4.5220   -2.1147    1.0039 C.ar      1 <0>         0.1463
      4 N1          3.4060   -1.7528    0.3996 N.ar      1 <0>        -0.5009
      5 C4          2.3005   -2.4754    0.4923 C.ar      1 <0>         0.4478
      6 C5          2.2832   -3.6506    1.2369 C.ar      1 <0>        -0.1888
      7 N2          1.1470   -2.0564   -0.1604 N.pl3     1 <0>        -0.7062
      8 C6         -0.0395   -2.9156   -0.1750 C.3       1 <0>         0.2557
      9 H1          0.2682   -3.9589   -0.2455 H         1 <0>         0.1233
     10 C7         -0.8997   -2.5643   -1.3615 C.ar      1 <0>        -0.0912
     11 C8         -0.9197   -1.2670   -1.8389 C.ar      1 <0>        -0.1141
     12 C9         -1.7067   -0.9399   -2.9273 C.ar      1 <0>        -0.0864
     13 C10        -2.4782   -1.9125   -3.5423 C.ar      1 <0>         0.0501
     14 C11        -2.4581   -3.2193   -3.0614 C.ar      1 <0>         0.0527
     15 C12        -1.6625   -3.5411   -1.9737 C.ar      1 <0>        -0.0788
     16 O1         -3.2929   -3.9794   -3.8286 O.3       1 <0>        -0.3006
     17 C13        -4.1345   -3.0419   -4.5257 C.3       1 <0>         0.2117
     18 O2         -3.3255   -1.8538   -4.6109 O.3       1 <0>        -0.3014
     19 C14        -0.8254   -2.7084    1.0941 C.2       1 <0>        -0.1910
     20 C15        -1.3673   -3.8037    1.7677 C.2       1 <0>        -0.0995
     21 C16        -2.0634   -3.5359    2.9050 C.2       1 <0>        -0.1692
     22 S1         -1.9741   -1.7717    3.0540 S.3       1 <0>         0.1916
     23 C17        -1.0031   -1.4543    1.5884 C.2       1 <0>         0.0783
     24 N3         -0.5473   -0.2357    1.0814 N.am      1 <0>        -0.6224
     25 C18        -0.7799    0.9056    1.7595 C.2       1 <0>         0.6013
     26 O3         -1.3022    0.8650    2.8583 O.2       1 <0>        -0.4695
     27 C19        -0.4038    2.1960    1.1738 C.2       1 <0>        -0.1076
     28 C20        -0.4930    3.4125    1.7878 C.2       1 <0>        -0.0865
     29 C21        -0.0286    4.3645    0.8667 C.2       1 <0>        -0.2194
     30 C22         0.3193    3.6960   -0.2548 C.2       1 <0>         0.0122
     31 O4          0.0965    2.3890   -0.0642 O.3       1 <0>        -0.1766
     32 C23        -2.7421   -4.5135    3.8090 C.3       1 <0>        -0.0436
     33 C24        -2.8543   -5.8563    3.0712 C.3       1 <0>        -0.1156
     34 C25        -1.4955   -6.1895    2.4487 C.3       1 <0>        -0.1208
     35 C26        -1.2075   -5.2420    1.2835 C.3       1 <0>        -0.0626
     36 H2          3.4555   -4.9652    2.4632 H         1 <0>         0.1763
     37 H3          5.4934   -3.5567    2.2505 H         1 <0>         0.1828
     38 H4          5.4045   -1.4998    0.9065 H         1 <0>         0.2084
     39 H5          1.3803   -4.2386    1.3107 H         1 <0>         0.1795
     40 H6          1.1276   -1.1952   -0.6063 H         1 <0>         0.4093
     41 H7         -0.3195   -0.5073   -1.3602 H         1 <0>         0.1151
     42 H8         -1.7204    0.0744   -3.2981 H         1 <0>         0.1444
     43 H9         -1.6415   -4.5547   -1.6014 H         1 <0>         0.1444
     44 H10        -4.3773   -3.4122   -5.5217 H         1 <0>         0.1418
     45 H11        -5.0434   -2.8464   -3.9566 H         1 <0>         0.0936
     46 H12        -0.0632   -0.2106    0.2412 H         1 <0>         0.4047
     47 H13        -0.8518    3.6049    2.7882 H         1 <0>         0.1677
     48 H14         0.0378    5.4308    1.0247 H         1 <0>         0.1666
     49 H15         0.7156    4.1417   -1.1553 H         1 <0>         0.2194
     50 H16        -2.1547   -4.6419    4.7182 H         1 <0>         0.0876
     51 H17        -3.7376   -4.1493    4.0626 H         1 <0>         0.0852
     52 H18        -3.1351   -6.6386    3.7764 H         1 <0>         0.0785
     53 H19        -3.6073   -5.7806    2.2867 H         1 <0>         0.0704
     54 H20        -0.7160   -6.0826    3.2030 H         1 <0>         0.0678
     55 H21        -1.5063   -7.2170    2.0851 H         1 <0>         0.0741
     56 H22        -1.9106   -5.4350    0.4732 H         1 <0>         0.0820
     57 H23        -0.1882   -5.3973    0.9300 H         1 <0>         0.0678
     58 H24         3.3953   -0.9370   -0.1252 H         1 <0>         0.4406
@<TRIPOS>BOND
     1    1    6 ar
     2    1    2 ar
     3    1   36 1
     4    2    3 ar
     5    2   37 1
     6    3    4 ar
     7    3   38 1
     8    4    5 ar
     9    4   58 1
    10    5    6 ar
    11    5    7 1
    12    6   39 1
    13    7    8 1
    14    7   40 1
    15    8    9 1
    16    8   10 1
    17    8   19 1
    18   10   15 ar
    19   10   11 ar
    20   11   12 ar
    21   11   41 1
    22   12   13 ar
    23   12   42 1
    24   13   18 1
    25   13   14 ar
    26   14   15 ar
    27   14   16 1
    28   15   43 1
    29   16   17 1
    30   17   18 1
    31   17   44 1
    32   17   45 1
    33   19   23 2
    34   19   20 1
    35   20   35 1
    36   20   21 2
    37   21   22 1
    38   21   32 1
    39   22   23 1
    40   23   24 1
    41   24   25 am
    42   24   46 1
    43   25   26 2
    44   25   27 1
    45   27   31 1
    46   27   28 2
    47   28   29 1
    48   28   47 1
    49   29   30 2
    50   29   48 1
    51   30   31 1
    52   30   49 1
    53   32   33 1
    54   32   50 1
    55   32   51 1
    56   33   34 1
    57   33   52 1
    58   33   53 1
    59   34   35 1
    60   34   54 1
    61   34   55 1
    62   35   56 1
    63   35   57 1
@<TRIPOS>MOLECULE
ZINC44998791
   70    76     0     0     0
SMALL
USER_CHARGES

@<TRIPOS>ATOM
      1 C1          0.0144    1.5150   -0.0324 C.3       1 <0>        -0.1136
      2 C2          0.0214   -0.0149   -0.0269 C.3       1 <0>        -0.1073
      3 C3          1.3628   -0.7161   -0.2507 C.3       1 <0>        -0.1505
      4 C4          0.7232   -0.7140    1.1392 C.3       1 <0>        -0.1472
      5 C5         -1.2109   -0.6726   -0.5925 C.ar      1 <0>         0.1920
      6 C6         -2.0469    0.0632   -1.4295 C.ar      1 <0>        -0.1253
      7 C7         -3.1850   -0.5322   -1.9570 C.ar      1 <0>        -0.0826
      8 C8         -3.4446   -1.8831   -1.6119 C.ar      1 <0>        -0.0672
      9 C9         -4.5706   -2.5575   -2.1018 C.ar      1 <0>        -0.1113
     10 C10        -4.7857   -3.8555   -1.7478 C.ar      1 <0>        -0.1054
     11 C11        -3.8995   -4.5219   -0.9038 C.ar      1 <0>        -0.0919
     12 C12        -2.7963   -3.8970   -0.4101 C.ar      1 <0>        -0.0940
     13 C13        -2.5408   -2.5566   -0.7536 C.ar      1 <0>         0.1351
     14 N1         -1.4625   -1.9211   -0.2874 N.ar      1 <0>        -0.4449
     15 C14        -4.0963    0.2174   -2.8487 C.2       1 <0>         0.5767
     16 O1         -5.0272   -0.3519   -3.3840 O.2       1 <0>        -0.5040
     17 N2         -3.8944    1.5319   -3.0678 N.am      1 <0>        -0.7275
     18 C15        -4.7970    2.2744   -3.9510 C.3       1 <0>         0.1323
     19 H1         -5.8127    1.8885   -3.8639 H         1 <0>         0.1343
     20 C16        -4.3113    2.1812   -5.4157 C.3       1 <0>        -0.1577
     21 C17        -4.5835    3.6052   -5.9623 C.3       1 <0>        -0.0015
     22 N3         -4.2556    4.4806   -4.8080 N.4       1 <0>        -0.3915
     23 C18        -4.7644    3.7755   -3.6089 C.3       1 <0>        -0.0181
     24 C19        -4.9247    5.7804   -4.9519 C.3       1 <0>         0.0797
     25 C20        -4.3483    6.5139   -6.1355 C.2       1 <0>        -0.2392
     26 C21        -3.2051    7.4249   -6.1222 C.ar      1 <0>        -0.0887
     27 C22        -2.3441    7.8832   -5.1207 C.ar      1 <0>        -0.0892
     28 C23        -1.3424    8.7571   -5.4352 C.ar      1 <0>        -0.1194
     29 C24        -1.1721    9.1942   -6.7420 C.ar      1 <0>        -0.0866
     30 C25        -2.0088    8.7556   -7.7448 C.ar      1 <0>        -0.1163
     31 C26        -3.0361    7.8655   -7.4486 C.ar      1 <0>         0.1020
     32 N4         -4.0112    7.2614   -8.2112 N.pl3     1 <0>        -0.5715
     33 H2         -4.1297    7.3859   -9.1659 H         1 <0>         0.4262
     34 C27        -4.7878    6.4499   -7.4168 C.2       1 <0>         0.1925
     35 C28        -5.9292    5.6356   -7.8874 C.ar      1 <0>        -0.1266
     36 C29        -5.8232    4.8680   -9.0531 C.ar      1 <0>        -0.0560
     37 C30        -6.9197    4.1235   -9.4501 C.ar      1 <0>        -0.1581
     38 C31        -8.0749    4.1610   -8.6897 C.ar      1 <0>         0.1242
     39 N5         -8.1462    4.8941   -7.5954 N.ar      1 <0>        -0.4690
     40 C32        -7.1278    5.6151   -7.1737 C.ar      1 <0>         0.1185
     41 H3          1.0403    1.8830   -0.0513 H         1 <0>         0.0708
     42 H4         -0.5162    1.8728   -0.9148 H         1 <0>         0.0571
     43 H5         -0.4858    1.8793    0.8649 H         1 <0>         0.0665
     44 H6          1.3541   -1.6532   -0.8073 H         1 <0>         0.0978
     45 H7          2.2403   -0.0873   -0.4019 H         1 <0>         0.1026
     46 H8          1.1799   -0.0839    1.9024 H         1 <0>         0.1010
     47 H9          0.2938   -1.6497    1.4970 H         1 <0>         0.1091
     48 H10        -1.8115    1.0903   -1.6663 H         1 <0>         0.1398
     49 H11        -5.2646   -2.0511   -2.7563 H         1 <0>         0.1647
     50 H12        -5.6542   -4.3743   -2.1257 H         1 <0>         0.1331
     51 H13        -4.0915   -5.5506   -0.6371 H         1 <0>         0.1364
     52 H14        -2.1194   -4.4276    0.2432 H         1 <0>         0.1414
     53 H15        -3.1514    1.9862   -2.6406 H         1 <0>         0.4056
     54 H16        -3.2469    1.9498   -5.4552 H         1 <0>         0.1034
     55 H17        -4.8891    1.4395   -5.9672 H         1 <0>         0.1230
     56 H18        -3.9317    3.8237   -6.8082 H         1 <0>         0.1339
     57 H19        -5.6307    3.7157   -6.2436 H         1 <0>         0.1294
     58 H20        -5.7693    4.1238   -3.3701 H         1 <0>         0.1488
     59 H21        -4.0978    3.9494   -2.7642 H         1 <0>         0.1397
     60 H22        -5.9924    5.6244   -5.1059 H         1 <0>         0.1312
     61 H23        -4.7704    6.3705   -4.0485 H         1 <0>         0.1406
     62 H24        -2.4706    7.5478   -4.1020 H         1 <0>         0.1236
     63 H25        -0.6778    9.1111   -4.6610 H         1 <0>         0.1326
     64 H26        -0.3756    9.8855   -6.9747 H         1 <0>         0.1363
     65 H27        -1.8679    9.1022   -8.7580 H         1 <0>         0.1299
     66 H28        -4.9090    4.8575   -9.6280 H         1 <0>         0.1406
     67 H29        -6.8745    3.5197  -10.3444 H         1 <0>         0.1504
     68 H30        -8.9323    3.5809   -8.9972 H         1 <0>         0.1701
     69 H31        -7.2230    6.1990   -6.2702 H         1 <0>         0.1620
     70 H32        -3.2569    4.6076   -4.7403 H         1 <0>         0.4273
@<TRIPOS>BOND
     1    1    2 1
     2    1   41 1
     3    1   42 1
     4    1   43 1
     5    2    4 1
     6    2    3 1
     7    2    5 1
     8    3    4 1
     9    3   44 1
    10    3   45 1
    11    4   46 1
    12    4   47 1
    13    5   14 ar
    14    5    6 ar
    15    6    7 ar
    16    6   48 1
    17    7    8 ar
    18    7   15 1
    19    8   13 ar
    20    8    9 ar
    21    9   10 ar
    22    9   49 1
    23   10   11 ar
    24   10   50 1
    25   11   12 ar
    26   11   51 1
    27   12   13 ar
    28   12   52 1
    29   13   14 ar
    30   15   16 2
    31   15   17 am
    32   17   18 1
    33   17   53 1
    34   18   19 1
    35   18   23 1
    36   18   20 1
    37   20   21 1
    38   20   54 1
    39   20   55 1
    40   21   22 1
    41   21   56 1
    42   21   57 1
    43   22   23 1
    44   22   24 1
    45   22   70 1
    46   23   58 1
    47   23   59 1
    48   24   25 1
    49   24   60 1
    50   24   61 1
    51   25   34 2
    52   25   26 1
    53   26   31 ar
    54   26   27 ar
    55   27   28 ar
    56   27   62 1
    57   28   29 ar
    58   28   63 1
    59   29   30 ar
    60   29   64 1
    61   30   31 ar
    62   30   65 1
    63   31   32 1
    64   32   33 1
    65   32   34 1
    66   34   35 1
    67   35   40 ar
    68   35   36 ar
    69   36   37 ar
    70   36   66 1
    71   37   38 ar
    72   37   67 1
    73   38   39 ar
    74   38   68 1
    75   39   40 ar
    76   40   69 1
@<TRIPOS>MOLECULE
ZINC64801818
   53    56     0     0     0
SMALL
USER_CHARGES

@<TRIPOS>ATOM
      1 C1          1.8501   -2.1873    2.4141 C.3       1 <0>        -0.1401
      2 C2          1.4030   -1.6131    1.0944 C.ar      1 <0>         0.2477
      3 C3          1.2857   -2.4257   -0.0164 C.ar      1 <0>        -0.2740
      4 C4          0.8677   -1.8529   -1.2195 C.ar      1 <0>         0.5173
      5 N1          0.5981   -0.5514   -1.2551 N.ar      1 <0>        -0.5669
      6 C5          0.7233    0.1931   -0.1671 C.ar      1 <0>         0.6675
      7 N2          1.1130   -0.3247    0.9887 N.ar      1 <0>        -0.5752
      8 N3          0.4348    1.5449   -0.2377 N.pl3     1 <0>        -0.5735
      9 C6          0.5306    2.5008    0.8752 C.3       1 <0>         0.0830
     10 C7          0.0886    3.8775    0.3360 C.3       1 <0>        -0.1300
     11 C8         -0.7710    3.5065   -0.9012 C.3       1 <0>        -0.1368
     12 C9         -0.0134    2.2659   -1.4430 C.3       1 <0>         0.1108
     13 N4          0.7362   -2.6296   -2.3598 N.pl3     1 <0>        -0.6008
     14 C10         0.4379   -2.0257   -3.5880 C.ar      1 <0>         0.1083
     15 C11         0.9216   -0.7556   -3.8728 C.ar      1 <0>        -0.0866
     16 C12         0.6274   -0.1603   -5.0835 C.ar      1 <0>        -0.1111
     17 C13        -0.1517   -0.8320   -6.0164 C.ar      1 <0>         0.1505
     18 C14        -0.6351   -2.1024   -5.7316 C.ar      1 <0>        -0.1344
     19 C15        -0.3369   -2.6996   -4.5229 C.ar      1 <0>        -0.0986
     20 N5         -0.4502   -0.2285   -7.2433 N.pl3     1 <0>        -1.0553
     21 S1         -0.3296   -1.1003   -8.6460 S.o2      1 <0>         2.6916
     22 O1         -1.0892   -2.2858   -8.4540 O.2       1 <0>        -0.9365
     23 O2         -0.5867   -0.1947   -9.7104 O.2       1 <0>        -0.9325
     24 C16         1.3524   -1.6004   -8.8055 C.ar      1 <0>        -0.6697
     25 C17         2.2782   -0.7414   -9.3683 C.ar      1 <0>         0.0006
     26 C18         3.5978   -1.1325   -9.4944 C.ar      1 <0>        -0.1167
     27 C19         3.9930   -2.3841   -9.0570 C.ar      1 <0>         0.0231
     28 C20         3.0661   -3.2440   -8.4931 C.ar      1 <0>        -0.0552
     29 C21         1.7467   -2.8488   -8.3629 C.ar      1 <0>         0.0032
     30 Cl1         3.5604   -4.8151   -7.9443 Cl        1 <0>        -0.0300
     31 Cl2         5.6503   -2.8762   -9.2157 Cl        1 <0>        -0.0230
     32 H1          0.9799   -2.5258    2.9765 H         1 <0>         0.1184
     33 H2          2.5180   -3.0301    2.2361 H         1 <0>         0.1194
     34 H3          2.3757   -1.4212    2.9842 H         1 <0>         0.0986
     35 H4          1.5124   -3.4799    0.0440 H         1 <0>         0.1852
     36 H5         -0.1278    2.1918    1.6870 H         1 <0>         0.0869
     37 H6          1.5599    2.5546    1.2300 H         1 <0>         0.0880
     38 H7         -0.5101    4.4077    1.0767 H         1 <0>         0.1007
     39 H8          0.9534    4.4718    0.0406 H         1 <0>         0.0912
     40 H9         -1.7886    3.2494   -0.6071 H         1 <0>         0.0865
     41 H10        -0.7699    4.3135   -1.6340 H         1 <0>         0.1038
     42 H11         0.8438    2.5736   -2.0417 H         1 <0>         0.0907
     43 H12        -0.6837    1.6401   -2.0321 H         1 <0>         0.0998
     44 H13         0.8509   -3.5914   -2.3074 H         1 <0>         0.4384
     45 H14         1.5275   -0.2332   -3.1473 H         1 <0>         0.1384
     46 H15         1.0030    0.8278   -5.3047 H         1 <0>         0.1391
     47 H16        -1.2410   -2.6248   -6.4571 H         1 <0>         0.1690
     48 H17        -0.7093   -3.6892   -4.3031 H         1 <0>         0.1418
     49 H18        -0.7278    0.7005   -7.2720 H         1 <0>         0.4328
     50 H19         1.9700    0.2358   -9.7098 H         1 <0>         0.1579
     51 H20         4.3203   -0.4613   -9.9347 H         1 <0>         0.1580
     52 H21         1.0239   -3.5176   -7.9194 H         1 <0>         0.1608
     53 H22         1.1906    0.2484    1.7674 H         1 <0>         0.4377
@<TRIPOS>BOND
     1    1    2 1
     2    1   32 1
     3    1   33 1
     4    1   34 1
     5    2    7 ar
     6    2    3 ar
     7    3    4 ar
     8    3   35 1
     9    4    5 ar
    10    4   13 1
    11    5    6 ar
    12    6    7 ar
    13    6    8 1
    14    7   53 1
    15    8   12 1
    16    8    9 1
    17    9   10 1
    18    9   36 1
    19    9   37 1
    20   10   11 1
    21   10   38 1
    22   10   39 1
    23   11   12 1
    24   11   40 1
    25   11   41 1
    26   12   42 1
    27   12   43 1
    28   13   14 1
    29   13   44 1
    30   14   19 ar
    31   14   15 ar
    32   15   16 ar
    33   15   45 1
    34   16   17 ar
    35   16   46 1
    36   17   18 ar
    37   17   20 1
    38   18   19 ar
    39   18   47 1
    40   19   48 1
    41   20   21 1
    42   20   49 1
    43   21   22 2
    44   21   23 2
    45   21   24 1
    46   24   29 ar
    47   24   25 ar
    48   25   26 ar
    49   25   50 1
    50   26   27 ar
    51   26   51 1
    52   27   28 ar
    53   27   31 1
    54   28   29 ar
    55   28   30 1
    56   29   52 1
@<TRIPOS>MOLECULE
ZINC13553001
   58    63     0     0     0
SMALL
USER_CHARGES
[4-(methyl-oxo-BLAHyl)phenyl] naphthalene-1-carboxylate
@<TRIPOS>ATOM
      1 C1         -8.9050    3.1450    8.5613 C.3       1 <0>        -0.0406
      2 C2         -9.0640    1.4434    6.8454 C.3       1 <0>        -0.0009
      3 C3         -9.7156    1.1297    5.4958 C.3       1 <0>        -0.0873
      4 C4         -9.1500    2.0934    4.4583 C.2       1 <0>         0.0072
      5 C5         -8.5243    3.2249    4.8576 C.2       1 <0>        -0.3208
      6 S1         -8.0376    4.0313    3.3567 S.3       1 <0>         0.2364
      7 C6         -8.6528    2.8962    2.2315 C.2       1 <0>         0.1541
      8 C7         -9.2276    1.8891    3.0229 C.2       1 <0>        -0.2898
      9 C8         -9.8546    0.7443    2.3230 C.2       1 <0>         0.6004
     10 O1        -10.4781   -0.1058    2.9316 O.2       1 <0>        -0.5256
     11 N1         -9.7061    0.6819    0.9834 N.am      1 <0>        -0.7354
     12 C9         -8.7858    1.5315    0.2345 C.3       1 <0>         0.4311
     13 H1         -9.1588    1.6525   -0.7825 H         1 <0>         0.1340
     14 N2         -8.6548    2.8598    0.8609 N.pl3     1 <0>        -0.6754
     15 C10        -7.4316    0.8718    0.1882 C.ar      1 <0>        -0.1393
     16 C11        -7.3346   -0.5073    0.2128 C.ar      1 <0>        -0.0739
     17 C12        -6.0945   -1.1144    0.1706 C.ar      1 <0>        -0.1185
     18 C13        -4.9458   -0.3393    0.1033 C.ar      1 <0>         0.1044
     19 C14        -5.0456    1.0445    0.0845 C.ar      1 <0>        -0.1149
     20 C15        -6.2884    1.6466    0.1208 C.ar      1 <0>        -0.0811
     21 O2         -3.7246   -0.9342    0.0616 O.3       1 <0>        -0.2928
     22 C16        -3.3594   -1.5007   -1.1058 C.2       1 <0>         0.5163
     23 O3         -4.0685   -1.3839   -2.0859 O.2       1 <0>        -0.4809
     24 C17        -2.1011   -2.2614   -1.1935 C.ar      1 <0>        -0.1356
     25 C18        -1.2218   -2.3046   -0.1184 C.ar      1 <0>        -0.0303
     26 C19        -0.0370   -3.0226   -0.2038 C.ar      1 <0>        -0.1452
     27 C20         0.3092   -3.7058   -1.3292 C.ar      1 <0>        -0.0495
     28 C21        -0.5318   -3.7062   -2.4546 C.ar      1 <0>        -0.0672
     29 C22        -1.7513   -2.9870   -2.4129 C.ar      1 <0>        -0.0037
     30 C23        -2.5923   -2.9853   -3.5321 C.ar      1 <0>        -0.1250
     31 C24        -2.2279   -3.6760   -4.6494 C.ar      1 <0>        -0.0991
     32 C25        -1.0290   -4.3836   -4.6941 C.ar      1 <0>        -0.1157
     33 C26        -0.1880   -4.4069   -3.6237 C.ar      1 <0>        -0.0986
     34 C27        -8.3087    3.6717    6.2691 C.3       1 <0>         0.1140
     35 H2         -7.8888    2.8269    8.7943 H         1 <0>         0.1247
     36 H3         -9.0051    4.2128    8.7560 H         1 <0>         0.1245
     37 H4         -9.6099    2.5945    9.1843 H         1 <0>         0.1253
     38 H5         -9.5566    0.8658    7.6276 H         1 <0>         0.1374
     39 H6         -8.0083    1.1749    6.8082 H         1 <0>         0.1326
     40 H7        -10.7952    1.2606    5.5693 H         1 <0>         0.1090
     41 H8         -9.4886    0.1035    5.2068 H         1 <0>         0.1307
     42 H9        -10.2394    0.0377    0.4919 H         1 <0>         0.4167
     43 H10        -8.5737    3.6675    0.3299 H         1 <0>         0.4333
     44 H11        -8.2290   -1.1102    0.2655 H         1 <0>         0.1335
     45 H12        -6.0192   -2.1916    0.1902 H         1 <0>         0.1341
     46 H13        -4.1527    1.6502    0.0371 H         1 <0>         0.1375
     47 H14        -6.3669    2.7236    0.1017 H         1 <0>         0.1306
     48 H15        -1.4622   -1.7746    0.7914 H         1 <0>         0.1402
     49 H16         0.6289   -3.0394    0.6462 H         1 <0>         0.1358
     50 H17         1.2398   -4.2533   -1.3571 H         1 <0>         0.1372
     51 H18        -3.5263   -2.4437   -3.5089 H         1 <0>         0.1584
     52 H19        -2.8777   -3.6742   -5.5121 H         1 <0>         0.1285
     53 H20        -0.7628   -4.9227   -5.5913 H         1 <0>         0.1291
     54 H21         0.7382   -4.9602   -3.6727 H         1 <0>         0.1343
     55 H22        -8.5558    4.7293    6.3617 H         1 <0>         0.1381
     56 H23        -7.2681    3.5109    6.5507 H         1 <0>         0.1408
     57 N3         -9.2148    2.8833    7.1391 N.4       1 <0>        -0.3960
     58 H24       -10.1849    3.1628    6.9521 H         1 <0>         0.4328
@<TRIPOS>BOND
     1    1   35 1
     2    1   36 1
     3    1   37 1
     4    1   57 1
     5    2    3 1
     6    2   38 1
     7    2   39 1
     8    2   57 1
     9    3    4 1
    10    3   40 1
    11    3   41 1
    12    4    8 1
    13    4    5 2
    14    5    6 1
    15    5   34 1
    16    6    7 1
    17    7   14 1
    18    7    8 2
    19    8    9 1
    20    9   10 2
    21    9   11 am
    22   11   12 1
    23   11   42 1
    24   12   13 1
    25   12   14 1
    26   12   15 1
    27   14   43 1
    28   15   20 ar
    29   15   16 ar
    30   16   17 ar
    31   16   44 1
    32   17   18 ar
    33   17   45 1
    34   18   19 ar
    35   18   21 1
    36   19   20 ar
    37   19   46 1
    38   20   47 1
    39   21   22 1
    40   22   23 2
    41   22   24 1
    42   24   29 ar
    43   24   25 ar
    44   25   26 ar
    45   25   48 1
    46   26   27 ar
    47   26   49 1
    48   27   28 ar
    49   27   50 1
    50   28   33 ar
    51   28   29 ar
    52   29   30 ar
    53   30   31 ar
    54   30   51 1
    55   31   32 ar
    56   31   52 1
    57   32   33 ar
    58   32   53 1
    59   33   54 1
    60   34   55 1
    61   34   56 1
    62   34   57 1
    63   57   58 1
@<TRIPOS>MOLECULE
ZINC35930150
   59    63     0     0     0
SMALL
USER_CHARGES

@<TRIPOS>ATOM
      1 C1          0.7306    1.3831   -1.5922 C.3       1 <0>        -0.1844
      2 C2          0.7182   -0.1464   -1.6288 C.3       1 <0>         0.0226
      3 C3          1.7680   -0.6883   -0.6566 C.3       1 <0>        -0.1839
      4 N1         -0.6106   -0.6348   -1.2367 N.4       1 <0>        -0.3826
      5 C4         -1.6181   -0.1051   -2.1643 C.3       1 <0>        -0.0258
      6 C5         -3.0151   -0.5193   -1.6904 C.3       1 <0>         0.1077
      7 N2         -3.0407   -1.9822   -1.5368 N.pl3     1 <0>        -0.6003
      8 C6         -1.9683   -2.6159   -0.7543 C.3       1 <0>         0.1087
      9 C7         -0.6207   -2.1027   -1.2724 C.3       1 <0>        -0.0261
     10 C8         -4.0445   -2.7403   -2.1123 C.ar      1 <0>         0.6178
     11 N3         -4.0176   -4.0575   -1.9344 N.ar      1 <0>        -0.5976
     12 C9         -4.9411   -4.8586   -2.4508 C.ar      1 <0>         0.3941
     13 C10        -5.9806   -4.2783   -3.2120 C.ar      1 <0>        -0.3839
     14 C11        -7.0951   -4.7483   -3.8960 C.2       1 <0>         0.4664
     15 N4         -7.7166   -3.6829   -4.4387 N.pl3     1 <0>        -0.3065
     16 N5         -7.0209   -2.5116   -4.1184 N.2       1 <0>        -0.2946
     17 C12        -5.9724   -2.8141   -3.3845 C.ar      1 <0>         0.3643
     18 N6         -4.9778   -2.1170   -2.8022 N.ar      1 <0>        -0.5724
     19 C13        -8.8844   -3.7394   -5.2089 C.ar      1 <0>         0.1691
     20 C14        -9.1088   -4.8187   -6.0543 C.ar      1 <0>        -0.1566
     21 C15       -10.2612   -4.8728   -6.8132 C.ar      1 <0>        -0.0581
     22 C16       -11.1926   -3.8540   -6.7332 C.ar      1 <0>        -0.1459
     23 C17       -10.9728   -2.7759   -5.8921 C.ar      1 <0>         0.1313
     24 C18        -9.8228   -2.7198   -5.1249 C.ar      1 <0>        -0.1368
     25 F1        -11.8841   -1.7815   -5.8165 F         1 <0>        -0.1238
     26 N7         -7.4930   -6.0677   -4.0012 N.pl3     1 <0>        -0.8257
     27 C19        -4.8836   -6.3215   -2.2354 C.ar      1 <0>        -0.0853
     28 C20        -5.0679   -7.1949   -3.3082 C.ar      1 <0>        -0.0806
     29 C21        -5.0134   -8.5572   -3.1023 C.ar      1 <0>        -0.1520
     30 C22        -4.7760   -9.0596   -1.8323 C.ar      1 <0>         0.1283
     31 C23        -4.5927   -8.1963   -0.7633 C.ar      1 <0>        -0.1510
     32 C24        -4.6391   -6.8324   -0.9599 C.ar      1 <0>        -0.0377
     33 F2         -4.7235  -10.3952   -1.6357 F         1 <0>        -0.1269
     34 H1          1.7166    1.7455   -1.8831 H         1 <0>         0.1058
     35 H2         -0.0173    1.7692   -2.2848 H         1 <0>         0.0825
     36 H3          0.5014    1.7243   -0.5826 H         1 <0>         0.0820
     37 H4          0.9474   -0.4876   -2.6383 H         1 <0>         0.1352
     38 H5          1.5388   -0.3472    0.3529 H         1 <0>         0.0818
     39 H6          1.7592   -1.7780   -0.6827 H         1 <0>         0.0819
     40 H7          2.7540   -0.3259   -0.9475 H         1 <0>         0.1058
     41 H8         -1.5511    0.9825   -2.1912 H         1 <0>         0.1453
     42 H9         -1.4393   -0.5052   -3.1623 H         1 <0>         0.1321
     43 H10        -3.2321   -0.0466   -0.7325 H         1 <0>         0.0916
     44 H11        -3.7573   -0.2155   -2.4286 H         1 <0>         0.1440
     45 H12        -2.0796   -2.3549    0.2981 H         1 <0>         0.0911
     46 H13        -2.0184   -3.6982   -0.8736 H         1 <0>         0.1421
     47 H14        -0.4721   -2.4424   -2.2974 H         1 <0>         0.1319
     48 H15         0.1812   -2.4871   -0.6421 H         1 <0>         0.1448
     49 H16        -8.3821   -5.6151   -6.1182 H         1 <0>         0.1364
     50 H17       -10.4351   -5.7119   -7.4706 H         1 <0>         0.1523
     51 H18       -12.0930   -3.8988   -7.3279 H         1 <0>         0.1506
     52 H19        -9.6532   -1.8817   -4.4652 H         1 <0>         0.1527
     53 H20        -7.0706   -6.7469   -3.4523 H         1 <0>         0.4236
     54 H21        -8.1947   -6.3145   -4.6238 H         1 <0>         0.4128
     55 H22        -5.2533   -6.8045   -4.2979 H         1 <0>         0.1416
     56 H23        -5.1562   -9.2340   -3.9317 H         1 <0>         0.1493
     57 H24        -4.4083   -8.5927    0.2242 H         1 <0>         0.1480
     58 H25        -4.4911   -6.1605   -0.1274 H         1 <0>         0.1428
     59 H26        -0.8204   -0.3209   -0.3010 H         1 <0>         0.4204
@<TRIPOS>BOND
     1    1    2 1
     2    1   34 1
     3    1   35 1
     4    1   36 1
     5    2    3 1
     6    2    4 1
     7    2   37 1
     8    3   38 1
     9    3   39 1
    10    3   40 1
    11    4    9 1
    12    4    5 1
    13    4   59 1
    14    5    6 1
    15    5   41 1
    16    5   42 1
    17    6    7 1
    18    6   43 1
    19    6   44 1
    20    7    8 1
    21    7   10 1
    22    8    9 1
    23    8   45 1
    24    8   46 1
    25    9   47 1
    26    9   48 1
    27   10   18 ar
    28   10   11 ar
    29   11   12 ar
    30   12   13 ar
    31   12   27 1
    32   13   17 ar
    33   13   14 2
    34   14   15 1
    35   14   26 1
    36   15   16 1
    37   15   19 1
    38   16   17 2
    39   17   18 ar
    40   19   24 ar
    41   19   20 ar
    42   20   21 ar
    43   20   49 1
    44   21   22 ar
    45   21   50 1
    46   22   23 ar
    47   22   51 1
    48   23   24 ar
    49   23   25 1
    50   24   52 1
    51   26   53 1
    52   26   54 1
    53   27   32 ar
    54   27   28 ar
    55   28   29 ar
    56   28   55 1
    57   29   30 ar
    58   29   56 1
    59   30   31 ar
    60   30   33 1
    61   31   32 ar
    62   31   57 1
    63   32   58 1
@<TRIPOS>MOLECULE
ZINC40728509
   57    61     0     0     0
SMALL
USER_CHARGES

@<TRIPOS>ATOM
      1 C1         -2.4105    0.9254    0.3667 C.3       1 <0>        -0.1548
      2 C2         -1.7577   -0.4287    0.2606 C.ar      1 <0>         0.2469
      3 C3         -1.8149   -1.1159   -0.9490 C.ar      1 <0>        -0.1815
      4 C4         -1.2278   -2.3451   -1.0633 C.ar      1 <0>         0.0486
      5 C5         -0.5780   -2.8772    0.0631 C.ar      1 <0>        -0.1239
      6 C6         -0.5563   -2.1260    1.2641 C.ar      1 <0>         0.1611
      7 N1         -1.1461   -0.9264    1.3083 N.ar      1 <0>        -0.4648
      8 C7          0.0926   -2.6550    2.3925 C.ar      1 <0>        -0.1769
      9 C8          0.6920   -3.8762    2.3250 C.ar      1 <0>         0.0011
     10 C9          0.6770   -4.6217    1.1512 C.ar      1 <0>        -0.1317
     11 C10         0.0505   -4.1395    0.0202 C.ar      1 <0>         0.2388
     12 N2          0.0387   -4.8914   -1.1520 N.pl3     1 <0>        -0.6433
     13 C11         0.1728   -6.2741   -1.0923 C.ar      1 <0>         0.3405
     14 C12         0.2891   -7.0263   -2.2627 C.ar      1 <0>         0.0943
     15 C13         0.4218   -8.4112   -2.1458 C.ar      1 <0>         0.3841
     16 N3          0.4324   -8.9576   -0.9323 N.ar      1 <0>        -0.5020
     17 C14         0.3199   -8.2110    0.1476 C.ar      1 <0>         0.2915
     18 N4          0.1978   -6.9007    0.0817 N.ar      1 <0>        -0.5266
     19 N5          0.5406   -9.2068   -3.2790 N.pl3     1 <0>        -0.6532
     20 C15         1.8522   -9.4268   -3.9044 C.3       1 <0>         0.1328
     21 C16         2.1034  -10.9369   -3.9981 C.3       1 <0>         0.1059
     22 N6          0.9197  -11.5738   -4.5923 N.pl3     1 <0>        -0.6234
     23 C17        -0.3920  -11.3539   -3.9670 C.3       1 <0>         0.1037
     24 C18        -0.6423   -9.8483   -3.8699 C.3       1 <0>         0.1329
     25 C19         1.0391  -12.3735   -5.7312 C.ar      1 <0>         0.2307
     26 C20         2.2955  -12.6704   -6.2448 C.ar      1 <0>        -0.1963
     27 C21         2.4108  -13.4617   -7.3706 C.ar      1 <0>        -0.0558
     28 C22         1.2774  -13.9585   -7.9878 C.ar      1 <0>        -0.1689
     29 C23         0.0242  -13.6650   -7.4794 C.ar      1 <0>         0.0162
     30 C24        -0.0975  -12.8782   -6.3493 C.ar      1 <0>        -0.1948
     31 Cl1        -1.3958  -14.2904   -8.2579 Cl        1 <0>        -0.0682
     32 N7          0.2725   -6.4070   -3.5227 N.pl3     1 <0>        -0.8580
     33 H1         -1.6918    1.6977    0.0927 H         1 <0>         0.1234
     34 H2         -3.2663    0.9700   -0.3069 H         1 <0>         0.1220
     35 H3         -2.7456    1.0879    1.3911 H         1 <0>         0.1022
     36 H4         -2.3227   -0.6785   -1.7958 H         1 <0>         0.1842
     37 H5         -1.2627   -2.8923   -1.9937 H         1 <0>         0.1640
     38 H6          0.1164   -2.0925    3.3142 H         1 <0>         0.1546
     39 H7          1.1880   -4.2725    3.1987 H         1 <0>         0.1580
     40 H8          1.1602   -5.5872    1.1245 H         1 <0>         0.1761
     41 H9         -0.0630   -4.4506   -2.0100 H         1 <0>         0.4181
     42 H10         0.3323   -8.6874    1.1168 H         1 <0>         0.2042
     43 H11         1.8585   -8.9922   -4.9039 H         1 <0>         0.0648
     44 H12         2.6296   -8.9638   -3.2966 H         1 <0>         0.0787
     45 H13         2.9740  -11.1247   -4.6265 H         1 <0>         0.0928
     46 H14         2.2748  -11.3419   -3.0008 H         1 <0>         0.0704
     47 H15        -1.1693  -11.8169   -4.5748 H         1 <0>         0.0921
     48 H16        -0.3982  -11.7885   -2.9674 H         1 <0>         0.0714
     49 H17        -1.5120   -9.6635   -3.2394 H         1 <0>         0.0790
     50 H18        -0.8178   -9.4444   -4.8670 H         1 <0>         0.0647
     51 H19         3.1813  -12.2824   -5.7640 H         1 <0>         0.1277
     52 H20         3.3874  -13.6925   -7.7698 H         1 <0>         0.1323
     53 H21         1.3704  -14.5765   -8.8686 H         1 <0>         0.1310
     54 H22        -1.0753  -12.6529   -5.9500 H         1 <0>         0.1320
     55 H23         0.2528   -5.4394   -3.5873 H         1 <0>         0.3921
     56 H24         0.2808   -6.9469   -4.3285 H         1 <0>         0.4131
     57 H25        -1.1242   -0.4160    2.1329 H         1 <0>         0.4460
@<TRIPOS>BOND
     1    1    2 1
     2    1   33 1
     3    1   34 1
     4    1   35 1
     5    2    7 ar
     6    2    3 ar
     7    3    4 ar
     8    3   36 1
     9    4    5 ar
    10    4   37 1
    11    5   11 ar
    12    5    6 ar
    13    6    7 ar
    14    6    8 ar
    15    7   57 1
    16    8    9 ar
    17    8   38 1
    18    9   10 ar
    19    9   39 1
    20   10   11 ar
    21   10   40 1
    22   11   12 1
    23   12   13 1
    24   12   41 1
    25   13   18 ar
    26   13   14 ar
    27   14   15 ar
    28   14   32 1
    29   15   16 ar
    30   15   19 1
    31   16   17 ar
    32   17   18 ar
    33   17   42 1
    34   19   24 1
    35   19   20 1
    36   20   21 1
    37   20   43 1
    38   20   44 1
    39   21   22 1
    40   21   45 1
    41   21   46 1
    42   22   23 1
    43   22   25 1
    44   23   24 1
    45   23   47 1
    46   23   48 1
    47   24   49 1
    48   24   50 1
    49   25   30 ar
    50   25   26 ar
    51   26   27 ar
    52   26   51 1
    53   27   28 ar
    54   27   52 1
    55   28   29 ar
    56   28   53 1
    57   29   30 ar
    58   29   31 1
    59   30   54 1
    60   32   55 1
    61   32   56 1
@<TRIPOS>MOLECULE
ZINC28884841
   42    45     0     0     0
SMALL
USER_CHARGES

@<TRIPOS>ATOM
      1 C1         -0.0343    1.4048    0.0119 C.ar      1 <0>        -0.1260
      2 C2          1.1651    2.0857    0.0637 C.ar      1 <0>        -0.0376
      3 C3          2.2616    1.5127    0.7060 C.ar      1 <0>        -0.0976
      4 C4          2.1394    0.2537    1.2926 C.ar      1 <0>         0.0056
      5 C5          0.9354   -0.4176    1.2345 C.ar      1 <0>        -0.6705
      6 C6         -0.1495    0.1562    0.5957 C.ar      1 <0>         0.0088
      7 S1          0.7793   -2.0089    1.9747 S.o2      1 <0>         2.6987
      8 O1         -0.2931   -2.6626    1.3099 O.2       1 <0>        -0.9498
      9 O2          2.0879   -2.5596    2.0337 O.2       1 <0>        -0.9569
     10 N1          0.2933   -1.7750    3.5404 N.pl3     1 <0>        -1.2479
     11 C7          3.5527    2.2389    0.7647 C.ar      1 <0>        -0.0109
     12 C8          4.2292    2.3906    1.9707 C.ar      1 <0>         0.1321
     13 N2          5.3800    3.0408    2.0083 N.ar      1 <0>        -0.4926
     14 C9          5.9467    3.5721    0.9449 C.ar      1 <0>         0.4997
     15 C10         5.3421    3.4766   -0.3355 C.ar      1 <0>        -0.1340
     16 C11         4.1189    2.7800   -0.3881 C.ar      1 <0>        -0.0547
     17 S2          3.6643    2.8438   -2.0989 S.3       1 <0>         0.2203
     18 C12         5.0599    3.7592   -2.7259 C.2       1 <0>        -0.1226
     19 C13         5.8058    3.9933   -1.6205 C.2       1 <0>        -0.0524
     20 C14         7.0814    4.7421   -1.7163 C.ar      1 <0>        -0.0753
     21 C15         8.2702    4.1570   -1.2814 C.ar      1 <0>        -0.0772
     22 C16         9.4554    4.8574   -1.3723 C.ar      1 <0>        -0.1406
     23 C17         9.4663    6.1406   -1.8941 C.ar      1 <0>         0.1348
     24 C18         8.2874    6.7271   -2.3278 C.ar      1 <0>        -0.0748
     25 C19         7.0973    6.0313   -2.2465 C.ar      1 <0>        -0.0572
     26 Cl1         8.3083    8.3355   -2.9807 Cl        1 <0>        -0.0207
     27 F1         10.6292    6.8228   -1.9801 F         1 <0>        -0.1114
     28 N3          7.1564    4.2377    1.0788 N.pl3     1 <0>        -0.8271
     29 H1         -0.8857    1.8496   -0.4816 H         1 <0>         0.1500
     30 H2          1.2540    3.0605   -0.3927 H         1 <0>         0.1378
     31 H3          2.9857   -0.1952    1.7913 H         1 <0>         0.1506
     32 H4         -1.0901   -0.3729    0.5529 H         1 <0>         0.1558
     33 H5          0.1525   -0.8756    3.8754 H         1 <0>         0.4166
     34 H6          0.1493   -2.5374    4.1226 H         1 <0>         0.4264
     35 H7          3.8137    1.9770    2.8777 H         1 <0>         0.2168
     36 H8          5.2575    4.0639   -3.7430 H         1 <0>         0.2166
     37 H9          8.2630    3.1569   -0.8738 H         1 <0>         0.1448
     38 H10        10.3762    4.4046   -1.0356 H         1 <0>         0.1584
     39 H11         6.1798    6.4867   -2.5890 H         1 <0>         0.1540
     40 H12         7.7736    3.9850    1.7833 H         1 <0>         0.4245
     41 H13         7.3852    4.9557    0.4681 H         1 <0>         0.4380
     42 H14         5.8297    3.1312    2.8630 H         1 <0>         0.4476
@<TRIPOS>BOND
     1    1    6 ar
     2    1    2 ar
     3    1   29 1
     4    2    3 ar
     5    2   30 1
     6    3    4 ar
     7    3   11 1
     8    4    5 ar
     9    4   31 1
    10    5    6 ar
    11    5    7 1
    12    6   32 1
    13    7    8 2
    14    7    9 2
    15    7   10 1
    16   10   33 1
    17   10   34 1
    18   11   16 ar
    19   11   12 ar
    20   12   13 ar
    21   12   35 1
    22   13   14 ar
    23   13   42 1
    24   14   15 ar
    25   14   28 1
    26   15   19 1
    27   15   16 ar
    28   16   17 1
    29   17   18 1
    30   18   19 2
    31   18   36 1
    32   19   20 1
    33   20   25 ar
    34   20   21 ar
    35   21   22 ar
    36   21   37 1
    37   22   23 ar
    38   22   38 1
    39   23   24 ar
    40   23   27 1
    41   24   25 ar
    42   24   26 1
    43   25   39 1
    44   28   40 1
    45   28   41 1
@<TRIPOS>MOLECULE
ZINC67298232
   44    47     0     0     0
SMALL
USER_CHARGES

@<TRIPOS>ATOM
      1 C1         -0.0725    1.7709    0.0079 C.3       1 <0>        -0.1574
      2 S1         -0.0479   -0.0427   -0.0189 S.3       1 <0>        -0.0645
      3 C2          0.8146   -0.4355   -1.5043 C.ar      1 <0>        -0.0495
      4 C3          1.2894    0.5847   -2.3211 C.ar      1 <0>        -0.1232
      5 C4          1.9646    0.2812   -3.4838 C.ar      1 <0>        -0.0585
      6 C5          2.1721   -1.0534   -3.8411 C.ar      1 <0>         0.0072
      7 C6          1.6940   -2.0758   -3.0178 C.ar      1 <0>        -0.0655
      8 C7          1.0239   -1.7649   -1.8540 C.ar      1 <0>        -0.0868
      9 N1          2.8417   -1.3584   -4.9951 N.pl3     1 <0>        -0.4579
     10 C8          3.7698   -2.2898   -4.9901 C.2       1 <0>         0.5157
     11 C9          4.4199   -2.7274   -6.2415 C.2       1 <0>        -0.2688
     12 C10         5.6939   -3.2686   -6.1431 C.2       1 <0>         0.1301
     13 C11         6.2705   -3.3947   -4.8533 C.ar      1 <0>        -0.1888
     14 C12         7.6219   -3.7445   -4.7118 C.ar      1 <0>        -0.0028
     15 C13         8.1771   -3.8222   -3.4684 C.ar      1 <0>        -0.1535
     16 C14         7.4097   -3.5640   -2.3339 C.ar      1 <0>         0.2214
     17 C15         6.0674   -3.2359   -2.4531 C.ar      1 <0>        -0.1569
     18 C16         5.4862   -3.1601   -3.7075 C.ar      1 <0>         0.1602
     19 O1          4.1682   -2.8792   -3.8326 O.3       1 <0>        -0.2005
     20 O2          7.9795   -3.6345   -1.1044 O.3       1 <0>        -0.4794
     21 C17         3.7436   -2.5952   -7.5413 C.2       1 <0>         0.5774
     22 O3          2.6644   -2.0382   -7.6116 O.2       1 <0>        -0.4704
     23 N2          4.3197   -3.0912   -8.6542 N.am      1 <0>        -0.6049
     24 C18         3.7353   -2.8727   -9.8950 C.2       1 <0>         0.2375
     25 N3          2.6352   -2.2075  -10.1749 N.2       1 <0>        -0.5106
     26 C19         2.2076   -2.0886  -11.4183 C.2       1 <0>         0.0547
     27 C20         2.9513   -2.6805  -12.3849 C.2       1 <0>        -0.2192
     28 S2          4.2664   -3.3883  -11.4065 S.3       1 <0>         0.1470
     29 H1          0.9502    2.1481    0.0148 H         1 <0>         0.0911
     30 H2         -0.5900    2.1403   -0.8775 H         1 <0>         0.0920
     31 H3         -0.5924    2.1141    0.9023 H         1 <0>         0.1214
     32 H4          1.1287    1.6162   -2.0443 H         1 <0>         0.1465
     33 H5          2.3325    1.0741   -4.1181 H         1 <0>         0.1466
     34 H6          1.8523   -3.1086   -3.2911 H         1 <0>         0.1415
     35 H7          0.6577   -2.5547   -1.2150 H         1 <0>         0.1511
     36 H8          6.2319   -3.5849   -7.0245 H         1 <0>         0.1827
     37 H9          8.2213   -3.9523   -5.5858 H         1 <0>         0.1659
     38 H10         9.2190   -4.0861   -3.3621 H         1 <0>         0.1630
     39 H11         5.4772   -3.0401   -1.5701 H         1 <0>         0.1666
     40 H12         8.3586   -2.7993   -0.7981 H         1 <0>         0.4179
     41 H13         5.1424   -3.6008   -8.5886 H         1 <0>         0.4278
     42 H14         1.3052   -1.5442  -11.6548 H         1 <0>         0.1831
     43 H15         2.7936   -2.7122  -13.4529 H         1 <0>         0.2071
     44 H16         2.6315   -0.8876   -5.8167 H         1 <0>         0.4636
@<TRIPOS>BOND
     1    1    2 1
     2    1   29 1
     3    1   30 1
     4    1   31 1
     5    2    3 1
     6    3    8 ar
     7    3    4 ar
     8    4    5 ar
     9    4   32 1
    10    5    6 ar
    11    5   33 1
    12    6    7 ar
    13    6    9 1
    14    7    8 ar
    15    7   34 1
    16    8   35 1
    17    9   10 2
    18    9   44 1
    19   10   19 1
    20   10   11 1
    21   11   12 2
    22   11   21 1
    23   12   13 1
    24   12   36 1
    25   13   18 ar
    26   13   14 ar
    27   14   15 ar
    28   14   37 1
    29   15   16 ar
    30   15   38 1
    31   16   17 ar
    32   16   20 1
    33   17   18 ar
    34   17   39 1
    35   18   19 1
    36   20   40 1
    37   21   22 2
    38   21   23 am
    39   23   24 1
    40   23   41 1
    41   24   28 1
    42   24   25 2
    43   25   26 1
    44   26   27 2
    45   26   42 1
    46   27   28 1
    47   27   43 1
@<TRIPOS>MOLECULE
ZINC12578506
   45    48     0     0     0
SMALL
USER_CHARGES
(1R)-1-phenyl-2-[[5-(p-tolyl)thieno[3,2-e]pyrimidin-4-yl]amino]ethanol
@<TRIPOS>ATOM
      1 C1         -4.7123   -3.3259   -0.0681 C.3       1 <0>        -0.1179
      2 C2         -3.4416   -2.5158   -0.0671 C.ar      1 <0>        -0.0789
      3 C3         -3.2877   -1.4744   -0.9647 C.ar      1 <0>        -0.0871
      4 C4         -2.1262   -0.7294   -0.9688 C.ar      1 <0>        -0.1081
      5 C5         -1.1067   -1.0277   -0.0656 C.ar      1 <0>        -0.0595
      6 C6         -1.2657   -2.0815    0.8335 C.ar      1 <0>        -0.1019
      7 C7         -2.4334   -2.8167    0.8311 C.ar      1 <0>        -0.1168
      8 C8          0.1434   -0.2316   -0.0652 C.2       1 <0>        -0.0398
      9 C9          1.3388   -0.8249   -0.2929 C.2       1 <0>        -0.1634
     10 S1          2.4992    0.5243   -0.1905 S.3       1 <0>         0.1146
     11 C10         1.3661    1.8443    0.1525 C.ar      1 <0>         0.1508
     12 C11         0.1088    1.2065    0.1800 C.ar      1 <0>        -0.2454
     13 C12        -0.9995    2.0538    0.4467 C.ar      1 <0>         0.4897
     14 N1         -0.7927    3.3471    0.6379 N.ar      1 <0>        -0.5895
     15 C13         0.4155    3.8787    0.5973 C.ar      1 <0>         0.3662
     16 N2          1.4831    3.1417    0.3585 N.ar      1 <0>        -0.5255
     17 N3         -2.2804    1.5339    0.5029 N.pl3     1 <0>        -0.6979
     18 C14        -3.4294    2.4312    0.6478 C.3       1 <0>         0.0962
     19 C15        -4.7183    1.6076    0.6836 C.3       1 <0>         0.1408
     20 H1         -4.6862    0.9191    1.5279 H         1 <0>         0.1111
     21 C16        -5.9002    2.5306    0.8326 C.ar      1 <0>        -0.1164
     22 C17        -6.4599    3.1228   -0.2841 C.ar      1 <0>        -0.1080
     23 C18        -7.5468    3.9660   -0.1478 C.ar      1 <0>        -0.1155
     24 C19        -8.0680    4.2246    1.1062 C.ar      1 <0>        -0.1150
     25 C20        -7.5053    3.6362    2.2233 C.ar      1 <0>        -0.1160
     26 C21        -6.4211    2.7895    2.0866 C.ar      1 <0>        -0.1069
     27 O1         -4.8434    0.8659   -0.5314 O.3       1 <0>        -0.5442
     28 H2         -4.6048   -4.1696   -0.7497 H         1 <0>         0.0715
     29 H3         -4.9089   -3.6948    0.9385 H         1 <0>         0.0661
     30 H4         -5.5425   -2.6991   -0.3940 H         1 <0>         0.0704
     31 H5         -4.0781   -1.2443   -1.6639 H         1 <0>         0.1302
     32 H6         -2.0069    0.0829   -1.6705 H         1 <0>         0.1221
     33 H7         -0.4776   -2.3200    1.5324 H         1 <0>         0.1258
     34 H8         -2.5591   -3.6311    1.5293 H         1 <0>         0.1258
     35 H9          1.5412   -1.8674   -0.4891 H         1 <0>         0.1963
     36 H10         0.5320    4.9394    0.7635 H         1 <0>         0.2078
     37 H11        -2.4177    0.5754    0.4464 H         1 <0>         0.4206
     38 H12        -3.3339    2.9970    1.5746 H         1 <0>         0.0816
     39 H13        -3.4614    3.1197   -0.1966 H         1 <0>         0.0743
     40 H14        -6.0501    2.9240   -1.2633 H         1 <0>         0.1202
     41 H15        -7.9866    4.4254   -1.0206 H         1 <0>         0.1248
     42 H16        -8.9150    4.8860    1.2130 H         1 <0>         0.1242
     43 H17        -7.9125    3.8382    3.2030 H         1 <0>         0.1252
     44 H18        -5.9813    2.3301    2.9595 H         1 <0>         0.1233
     45 H19        -4.8781    1.4157   -1.3261 H         1 <0>         0.3742
@<TRIPOS>BOND
     1    1    2 1
     2    1   28 1
     3    1   29 1
     4    1   30 1
     5    2    7 ar
     6    2    3 ar
     7    3    4 ar
     8    3   31 1
     9    4    5 ar
    10    4   32 1
    11    5    6 ar
    12    5    8 1
    13    6    7 ar
    14    6   33 1
    15    7   34 1
    16    8   12 1
    17    8    9 2
    18    9   10 1
    19    9   35 1
    20   10   11 1
    21   11   16 ar
    22   11   12 ar
    23   12   13 ar
    24   13   14 ar
    25   13   17 1
    26   14   15 ar
    27   15   16 ar
    28   15   36 1
    29   17   18 1
    30   17   37 1
    31   18   19 1
    32   18   38 1
    33   18   39 1
    34   19   20 1
    35   19   21 1
    36   19   27 1
    37   21   26 ar
    38   21   22 ar
    39   22   23 ar
    40   22   40 1
    41   23   24 ar
    42   23   41 1
    43   24   25 ar
    44   24   42 1
    45   25   26 ar
    46   25   43 1
    47   26   44 1
    48   27   45 1
@<TRIPOS>MOLECULE
ZINC20707374
   52    56     0     0     0
SMALL
USER_CHARGES
2-[(3aR,4S,9bR)-8-[[(2R)-tetrahydrofuran-2-yl]methoxy]-3a,4,5,9b-tetrahydro-3H-cyclopenta[c]quinolin-4-yl]phenol
@<TRIPOS>ATOM
      1 C1         -4.4122   11.3138   -0.1045 C.ar      1 <0>        -0.1652
      2 C2         -5.1711   12.4464    0.1273 C.ar      1 <0>        -0.0767
      3 C3         -6.2943   12.6949   -0.6373 C.ar      1 <0>        -0.1633
      4 C4         -6.6608   11.8071   -1.6386 C.ar      1 <0>         0.1638
      5 C5         -5.8979   10.6718   -1.8691 C.ar      1 <0>        -0.1976
      6 C6         -4.7783   10.4250   -1.0981 C.ar      1 <0>        -0.0617
      7 C7         -6.2935    9.7051   -2.9555 C.3       1 <0>         0.2053
      8 H1         -6.7284   10.2904   -3.7791 H         1 <0>         0.0884
      9 C8         -7.2546    8.6652   -2.4079 C.3       1 <0>        -0.0898
     10 H2         -7.5192    8.0728   -3.2962 H         1 <0>         0.1043
     11 C9         -8.5074    9.1808   -1.6872 C.3       1 <0>        -0.0946
     12 C10        -8.7787    8.0494   -0.6938 C.2       1 <0>        -0.1710
     13 C11        -7.6508    7.4046   -0.4210 C.2       1 <0>        -0.1618
     14 C12        -6.5410    8.0541   -1.1649 C.3       1 <0>        -0.0161
     15 H3         -6.0375    8.6745   -0.4089 H         1 <0>         0.1053
     16 C13        -5.3695    7.2892   -1.6447 C.ar      1 <0>        -0.1058
     17 C14        -4.9440    6.1289   -1.0344 C.ar      1 <0>        -0.1029
     18 C15        -3.8237    5.4614   -1.5060 C.ar      1 <0>         0.0817
     19 C16        -3.1363    5.9565   -2.6045 C.ar      1 <0>        -0.1669
     20 C17        -3.5659    7.1101   -3.2271 C.ar      1 <0>        -0.1539
     21 C18        -4.6847    7.7875   -2.7581 C.ar      1 <0>         0.1844
     22 N1         -5.1111    8.9481   -3.4213 N.pl3     1 <0>        -0.7525
     23 O1         -3.4032    4.3207   -0.8963 O.3       1 <0>        -0.3109
     24 C19        -2.2456    3.6834   -1.4400 C.3       1 <0>         0.0633
     25 C20        -1.9272    2.4259   -0.6286 C.3       1 <0>         0.0724
     26 H4         -2.8530    1.8397   -0.5323 H         1 <0>         0.0820
     27 C21        -0.7554    1.6525   -1.2728 C.3       1 <0>        -0.1458
     28 C22         0.0443    1.1100   -0.0672 C.3       1 <0>        -0.1553
     29 C23        -0.7359    1.6198    1.1648 C.3       1 <0>         0.0437
     30 O2         -1.4547    2.7813    0.6891 O.3       1 <0>        -0.3628
     31 O3         -7.7658   12.0491   -2.3919 O.3       1 <0>        -0.5057
     32 H5         -3.5343   11.1213    0.4944 H         1 <0>         0.1210
     33 H6         -4.8852   13.1373    0.9065 H         1 <0>         0.1270
     34 H7         -6.8868   13.5793   -0.4556 H         1 <0>         0.1280
     35 H8         -4.1862    9.5391   -1.2745 H         1 <0>         0.1261
     36 H9         -8.2813   10.1410   -1.2005 H         1 <0>         0.0880
     37 H10        -9.3184    9.3216   -2.4169 H         1 <0>         0.0734
     38 H11        -9.7203    7.7352   -0.2198 H         1 <0>         0.1311
     39 H12        -7.6617    6.5419    0.2614 H         1 <0>         0.1330
     40 H13        -5.4831    5.7401   -0.1832 H         1 <0>         0.1279
     41 H14        -2.2636    5.4378   -2.9731 H         1 <0>         0.1240
     42 H15        -3.0291    7.4893   -4.0841 H         1 <0>         0.1217
     43 H16        -4.5494    9.2927   -4.3020 H         1 <0>         0.4202
     44 H17        -2.4377    3.4054   -2.4868 H         1 <0>         0.0746
     45 H18        -1.3912    4.3748   -1.3951 H         1 <0>         0.0687
     46 H19        -1.1527    0.8437   -1.9037 H         1 <0>         0.0829
     47 H20        -0.1581    2.3394   -1.8903 H         1 <0>         0.0793
     48 H21         0.0741    0.0113   -0.1115 H         1 <0>         0.0801
     49 H22         1.0700    1.5062   -0.0993 H         1 <0>         0.0777
     50 H23        -1.4188    0.8329    1.5177 H         1 <0>         0.0629
     51 H24        -0.0279    1.8774    1.9663 H         1 <0>         0.0953
     52 H25        -8.0555   11.3446   -3.1855 H         1 <0>         0.4233
@<TRIPOS>BOND
     1    1    6 ar
     2    1    2 ar
     3    1   32 1
     4    2    3 ar
     5    2   33 1
     6    3    4 ar
     7    3   34 1
     8    4    5 ar
     9    4   31 1
    10    5    6 ar
    11    5    7 1
    12    6   35 1
    13    7    8 1
    14    7   22 1
    15    7    9 1
    16    9   10 1
    17    9   14 1
    18    9   11 1
    19   11   12 1
    20   11   36 1
    21   11   37 1
    22   12   13 2
    23   12   38 1
    24   13   14 1
    25   13   39 1
    26   14   15 1
    27   14   16 1
    28   16   21 ar
    29   16   17 ar
    30   17   18 ar
    31   17   40 1
    32   18   19 ar
    33   18   23 1
    34   19   20 ar
    35   19   41 1
    36   20   21 ar
    37   20   42 1
    38   21   22 1
    39   22   43 1
    40   23   24 1
    41   24   25 1
    42   24   44 1
    43   24   45 1
    44   25   26 1
    45   25   30 1
    46   25   27 1
    47   27   28 1
    48   27   46 1
    49   27   47 1
    50   28   29 1
    51   28   48 1
    52   28   49 1
    53   29   30 1
    54   29   50 1
    55   29   51 1
    56   31   52 1
@<TRIPOS>MOLECULE
ZINC40152986
   42    44     0     0     0
SMALL
USER_CHARGES

@<TRIPOS>ATOM
      1 C1          9.9002    0.1522    3.9706 C.3       1 <0>         0.0266
      2 O1          8.8509    0.6622    4.7958 O.3       1 <0>        -0.3181
      3 C2          7.7181   -0.0845    4.8860 C.ar      1 <0>         0.1121
      4 C3          7.6229   -1.2855    4.1985 C.ar      1 <0>        -0.1873
      5 C4          6.4727   -2.0443    4.2896 C.ar      1 <0>        -0.0776
      6 C5          5.4117   -1.6051    5.0700 C.ar      1 <0>         0.1269
      7 C6          5.5078   -0.4032    5.7582 C.ar      1 <0>        -0.1066
      8 C7          6.6604    0.3523    5.6700 C.ar      1 <0>        -0.1317
      9 N1          4.2439   -2.3745    5.1626 N.am      1 <0>        -0.6847
     10 C8          4.3178   -3.7195    5.1177 C.2       1 <0>         0.7046
     11 O2          5.4025   -4.2683    5.0917 O.2       1 <0>        -0.5570
     12 N2          3.1893   -4.4562    5.1016 N.am      1 <0>        -0.7225
     13 C9          3.2677   -5.9177    5.1646 C.3       1 <0>         0.2052
     14 C10         2.0084   -6.5775    5.7509 C.3       1 <0>        -0.1288
     15 C11         2.6693   -6.4293    7.1316 C.3       1 <0>        -0.1412
     16 C12         4.0211   -6.4416    6.3986 C.3       1 <0>        -0.1338
     17 C13         3.7276   -6.5354    3.8692 C.ar      1 <0>        -0.0557
     18 C14         4.1309   -7.8574    3.8389 C.ar      1 <0>        -0.1061
     19 C15         4.5524   -8.4245    2.6510 C.ar      1 <0>        -0.0871
     20 C16         4.5706   -7.6691    1.4924 C.ar      1 <0>        -0.0918
     21 C17         4.1668   -6.3464    1.5232 C.ar      1 <0>        -0.0886
     22 C18         3.7405   -5.7817    2.7105 C.ar      1 <0>        -0.0968
     23 Br1         5.1477   -8.4442   -0.1331 Br        1 <0>        -0.0516
     24 H1          9.5384    0.0442    2.9481 H         1 <0>         0.0556
     25 H2         10.7433    0.8427    3.9867 H         1 <0>         0.1007
     26 H3         10.2191   -0.8195    4.3477 H         1 <0>         0.0560
     27 H4          8.4483   -1.6270    3.5915 H         1 <0>         0.1309
     28 H5          6.3984   -2.9790    3.7537 H         1 <0>         0.1384
     29 H6          4.6828   -0.0610    6.3654 H         1 <0>         0.1321
     30 H7          6.7369    1.2853    6.2086 H         1 <0>         0.1353
     31 H8          3.3825   -1.9390    5.2589 H         1 <0>         0.4059
     32 H9          2.3252   -4.0187    5.0483 H         1 <0>         0.4009
     33 H10         1.1058   -5.9779    5.6323 H         1 <0>         0.0774
     34 H11         1.8734   -7.6135    5.4404 H         1 <0>         0.1008
     35 H12         2.4473   -5.4818    7.6225 H         1 <0>         0.0817
     36 H13         2.5178   -7.2902    7.7828 H         1 <0>         0.0757
     37 H14         4.4363   -7.4405    6.2651 H         1 <0>         0.0947
     38 H15         4.7434   -5.7324    6.8028 H         1 <0>         0.0838
     39 H16         4.1171   -8.4469    4.7437 H         1 <0>         0.1334
     40 H17         4.8679   -9.4571    2.6275 H         1 <0>         0.1340
     41 H18         4.1808   -5.7563    0.6187 H         1 <0>         0.1307
     42 H19         3.4214   -4.7501    2.7338 H         1 <0>         0.1237
@<TRIPOS>BOND
     1    1    2 1
     2    1   24 1
     3    1   25 1
     4    1   26 1
     5    2    3 1
     6    3    8 ar
     7    3    4 ar
     8    4    5 ar
     9    4   27 1
    10    5    6 ar
    11    5   28 1
    12    6    7 ar
    13    6    9 1
    14    7    8 ar
    15    7   29 1
    16    8   30 1
    17    9   10 am
    18    9   31 1
    19   10   11 2
    20   10   12 am
    21   12   13 1
    22   12   32 1
    23   13   16 1
    24   13   14 1
    25   13   17 1
    26   14   15 1
    27   14   33 1
    28   14   34 1
    29   15   16 1
    30   15   35 1
    31   15   36 1
    32   16   37 1
    33   16   38 1
    34   17   22 ar
    35   17   18 ar
    36   18   19 ar
    37   18   39 1
    38   19   20 ar
    39   19   40 1
    40   20   21 ar
    41   20   23 1
    42   21   22 ar
    43   21   41 1
    44   22   42 1
@<TRIPOS>MOLECULE
ZINC57364837
   51    53     0     0     0
SMALL
USER_CHARGES

@<TRIPOS>ATOM
      1 C1         -0.3252    1.2833    1.0125 C.3       1 <0>        -0.1468
      2 C2         -0.2928   -0.2441    0.9294 C.3       1 <0>        -0.0866
      3 C3         -1.7022   -0.7736    0.8639 C.ar      1 <0>        -0.0806
      4 C4         -2.3814   -1.0768    2.0291 C.ar      1 <0>        -0.1193
      5 C5         -3.6742   -1.5625    1.9691 C.ar      1 <0>        -0.0916
      6 C6         -4.2880   -1.7446    0.7439 C.ar      1 <0>        -0.0805
      7 C7         -3.6091   -1.4405   -0.4213 C.ar      1 <0>        -0.1102
      8 C8         -2.3178   -0.9508   -0.3610 C.ar      1 <0>        -0.1197
      9 C9         -5.6970   -2.2751    0.6784 C.3       1 <0>         0.0895
     10 N1         -6.6446   -1.1530    0.7101 N.3       1 <0>        -0.5136
     11 C10        -6.5250   -0.3286   -0.4998 C.3       1 <0>         0.0252
     12 C11        -8.0220   -1.6321    0.8867 C.3       1 <0>         0.1541
     13 H1         -8.2869   -2.2899    0.0589 H         1 <0>         0.0724
     14 C12        -8.1292   -2.4021    2.2044 C.3       1 <0>        -0.1430
     15 C13        -8.9634   -0.4556    0.9143 C.ar      1 <0>         0.3907
     16 N2         -8.6476    0.6077    1.6321 N.ar      1 <0>        -0.5496
     17 C14        -9.4312    1.6718    1.6974 C.ar      1 <0>         0.4865
     18 C15       -10.6553    1.6770    0.9730 C.ar      1 <0>        -0.2431
     19 C16       -11.6753    2.7068    0.8802 C.2       1 <0>        -0.0877
     20 C17       -12.7614    2.4864    0.1248 C.2       1 <0>        -0.1457
     21 S1        -12.4890    0.8502   -0.5290 S.3       1 <0>         0.1006
     22 C18       -10.9237    0.5067    0.2300 C.ar      1 <0>         0.1489
     23 N3        -10.0816   -0.5079    0.2173 N.ar      1 <0>        -0.5171
     24 C19       -13.9332    3.4034   -0.1143 C.3       1 <0>        -0.0707
     25 C20       -11.5154    4.0074    1.6243 C.3       1 <0>        -0.1152
     26 N4         -9.0648    2.7654    2.4609 N.pl3     1 <0>        -0.8364
     27 H2          0.6942    1.6663    1.0599 H         1 <0>         0.0577
     28 H3         -0.8235    1.6847    0.1301 H         1 <0>         0.0549
     29 H4         -0.8694    1.5871    1.9068 H         1 <0>         0.0556
     30 H5          0.2513   -0.5478    0.0351 H         1 <0>         0.0706
     31 H6          0.2055   -0.6455    1.8118 H         1 <0>         0.0713
     32 H7         -1.9019   -0.9346    2.9863 H         1 <0>         0.1201
     33 H8         -4.2046   -1.8001    2.8793 H         1 <0>         0.1225
     34 H9         -4.0885   -1.5831   -1.3785 H         1 <0>         0.1172
     35 H10        -1.7887   -0.7097   -1.2712 H         1 <0>         0.1191
     36 H11        -5.8309   -2.8377   -0.2455 H         1 <0>         0.0451
     37 H12        -5.8792   -2.9287    1.5314 H         1 <0>         0.0915
     38 H13        -6.7356   -0.9392   -1.3778 H         1 <0>         0.0260
     39 H14        -7.2376    0.4948   -0.4504 H         1 <0>         0.0593
     40 H15        -5.5130    0.0705   -0.5690 H         1 <0>         0.0765
     41 H16        -9.1513   -2.7575    2.3354 H         1 <0>         0.0639
     42 H17        -7.4484   -3.2530    2.1844 H         1 <0>         0.0717
     43 H18        -7.8644   -1.7443    3.0322 H         1 <0>         0.0744
     44 H19       -13.7331    4.0293   -0.9840 H         1 <0>         0.0822
     45 H20       -14.8292    2.8090   -0.2929 H         1 <0>         0.0772
     46 H21       -14.0847    4.0352    0.7609 H         1 <0>         0.0840
     47 H22       -10.8949    4.6866    1.0397 H         1 <0>         0.0750
     48 H23       -12.4953    4.4573    1.7843 H         1 <0>         0.0787
     49 H24       -11.0404    3.8192    2.5872 H         1 <0>         0.0725
     50 H25        -8.4335    2.6585    3.1896 H         1 <0>         0.4093
     51 H26        -9.4392    3.6391    2.2678 H         1 <0>         0.4130
@<TRIPOS>BOND
     1    1    2 1
     2    1   27 1
     3    1   28 1
     4    1   29 1
     5    2    3 1
     6    2   30 1
     7    2   31 1
     8    3    8 ar
     9    3    4 ar
    10    4    5 ar
    11    4   32 1
    12    5    6 ar
    13    5   33 1
    14    6    7 ar
    15    6    9 1
    16    7    8 ar
    17    7   34 1
    18    8   35 1
    19    9   10 1
    20    9   36 1
    21    9   37 1
    22   10   11 1
    23   10   12 1
    24   11   38 1
    25   11   39 1
    26   11   40 1
    27   12   13 1
    28   12   14 1
    29   12   15 1
    30   14   41 1
    31   14   42 1
    32   14   43 1
    33   15   23 ar
    34   15   16 ar
    35   16   17 ar
    36   17   18 ar
    37   17   26 1
    38   18   22 ar
    39   18   19 1
    40   19   20 2
    41   19   25 1
    42   20   21 1
    43   20   24 1
    44   21   22 1
    45   22   23 ar
    46   24   44 1
    47   24   45 1
    48   24   46 1
    49   25   47 1
    50   25   48 1
    51   25   49 1
    52   26   50 1
    53   26   51 1
@<TRIPOS>MOLECULE
ZINC67578110
   50    52     0     0     0
SMALL
USER_CHARGES

@<TRIPOS>ATOM
      1 C1         -0.8913    0.2734    0.3203 C.3       1 <0>        -0.1453
      2 C2         -0.6654   -1.1505   -0.1918 C.3       1 <0>        -0.0137
      3 H1         -0.2805   -1.7709    0.6176 H         1 <0>         0.0924
      4 C3          0.3303   -1.1256   -1.3227 C.ar      1 <0>        -0.0504
      5 C4          0.0606   -0.3933   -2.4646 C.ar      1 <0>        -0.1167
      6 C5          0.9715   -0.3679   -3.5043 C.ar      1 <0>        -0.0980
      7 C6          2.1544   -1.0744   -3.4056 C.ar      1 <0>        -0.1226
      8 C7          2.4282   -1.8105   -2.2606 C.ar      1 <0>         0.1632
      9 C8          1.5136   -1.8294   -1.2155 C.ar      1 <0>        -0.1352
     10 N1          3.6257   -2.5273   -2.1575 N.am      1 <0>        -0.6848
     11 C9          4.2059   -3.0329   -3.2639 C.2       1 <0>         0.7135
     12 O1          3.7884   -2.7256   -4.3638 O.2       1 <0>        -0.5665
     13 N2          5.2488   -3.8791   -3.1512 N.am      1 <0>        -0.6268
     14 C10         5.9679   -4.3711   -4.3390 C.3       1 <0>         0.1298
     15 C11         7.4168   -3.8852   -4.2483 C.3       1 <0>        -0.0989
     16 C12         7.9586   -4.1108   -2.8681 C.2       1 <0>        -0.0615
     17 C13         7.2171   -4.3066   -1.8043 C.2       1 <0>        -0.1675
     18 C14         5.7182   -4.3432   -1.8379 C.3       1 <0>         0.1448
     19 C15         9.4262   -4.1128   -2.6953 C.ar      1 <0>        -0.0683
     20 C16        10.1592   -2.9471   -2.9234 C.ar      1 <0>        -0.0889
     21 C17        11.5282   -2.9530   -2.7613 C.ar      1 <0>        -0.1434
     22 C18        12.1780   -4.1167   -2.3715 C.ar      1 <0>         0.1069
     23 C19        11.4523   -5.2785   -2.1441 C.ar      1 <0>        -0.1437
     24 C20        10.0824   -5.2790   -2.2981 C.ar      1 <0>        -0.0898
     25 O2         13.5273   -4.1186   -2.2128 O.3       1 <0>        -0.4998
     26 S1         -2.2367   -1.8363   -0.7845 S.3       1 <0>        -0.2486
     27 C21        -3.2615   -1.9395    0.7087 C.3       1 <0>        -0.1264
     28 H2          0.0529    0.6855    0.6764 H         1 <0>         0.0678
     29 H3         -1.2762    0.8938   -0.4891 H         1 <0>         0.0721
     30 H4         -1.6114    0.2554    1.1383 H         1 <0>         0.0595
     31 H5         -0.8637    0.1596   -2.5443 H         1 <0>         0.1271
     32 H6          0.7578    0.2045   -4.3948 H         1 <0>         0.1282
     33 H7          2.8654   -1.0545   -4.2183 H         1 <0>         0.1518
     34 H8          1.7258   -2.3972   -0.3217 H         1 <0>         0.1237
     35 H9          4.0381   -2.6603   -1.2897 H         1 <0>         0.4056
     36 H10         5.9451   -5.4607   -4.3587 H         1 <0>         0.0766
     37 H11         5.5024   -3.9757   -5.2418 H         1 <0>         0.1027
     38 H12         8.0260   -4.4315   -4.9685 H         1 <0>         0.0895
     39 H13         7.4555   -2.8212   -4.4814 H         1 <0>         0.0826
     40 H14         7.7116   -4.4461   -0.8544 H         1 <0>         0.1234
     41 H15         5.3209   -3.6931   -1.0584 H         1 <0>         0.0846
     42 H16         5.3780   -5.3650   -1.6697 H         1 <0>         0.0862
     43 H17         9.6546   -2.0418   -3.2269 H         1 <0>         0.1271
     44 H18        12.0961   -2.0515   -2.9379 H         1 <0>         0.1306
     45 H19        11.9613   -6.1817   -1.8414 H         1 <0>         0.1308
     46 H20         9.5181   -6.1817   -2.1164 H         1 <0>         0.1287
     47 H21        13.8185   -3.8908   -1.3193 H         1 <0>         0.3923
     48 H22        -2.7780   -2.5905    1.4370 H         1 <0>         0.0755
     49 H23        -3.3830   -0.9439    1.1355 H         1 <0>         0.0772
     50 H24        -4.2395   -2.3460    0.4508 H         1 <0>         0.1025
@<TRIPOS>BOND
     1    1    2 1
     2    1   28 1
     3    1   29 1
     4    1   30 1
     5    2    3 1
     6    2    4 1
     7    2   26 1
     8    4    9 ar
     9    4    5 ar
    10    5    6 ar
    11    5   31 1
    12    6    7 ar
    13    6   32 1
    14    7    8 ar
    15    7   33 1
    16    8    9 ar
    17    8   10 1
    18    9   34 1
    19   10   11 am
    20   10   35 1
    21   11   12 2
    22   11   13 am
    23   13   18 1
    24   13   14 1
    25   14   15 1
    26   14   36 1
    27   14   37 1
    28   15   16 1
    29   15   38 1
    30   15   39 1
    31   16   17 2
    32   16   19 1
    33   17   18 1
    34   17   40 1
    35   18   41 1
    36   18   42 1
    37   19   24 ar
    38   19   20 ar
    39   20   21 ar
    40   20   43 1
    41   21   22 ar
    42   21   44 1
    43   22   23 ar
    44   22   25 1
    45   23   24 ar
    46   23   45 1
    47   24   46 1
    48   25   47 1
    49   26   27 1
    50   27   48 1
    51   27   49 1
    52   27   50 1
@<TRIPOS>MOLECULE
ZINC05578955
   47    50     0     0     0
SMALL
USER_CHARGES
N'-[2-(1-adamantyl)acetyl]-2-bromo-benzohydrazide
@<TRIPOS>ATOM
      1 C1         -8.9376    3.0005    6.1570 C.ar      1 <0>        -0.1108
      2 C2        -10.2562    2.6459    6.3841 C.ar      1 <0>        -0.0824
      3 C3        -10.9300    1.8472    5.4784 C.ar      1 <0>        -0.0985
      4 C4        -10.2901    1.3980    4.3399 C.ar      1 <0>        -0.0400
      5 C5         -8.9599    1.7528    4.1049 C.ar      1 <0>        -0.1090
      6 C6         -8.2849    2.5551    5.0268 C.ar      1 <0>        -0.0797
      7 C7         -8.2681    1.2762    2.8890 C.2       1 <0>         0.5504
      8 O1         -8.8570    0.5737    2.0906 O.2       1 <0>        -0.5045
      9 N1         -6.9844    1.6205    2.6653 N.am      1 <0>        -0.5200
     10 N2         -6.3287    1.1686    1.5126 N.am      1 <0>        -0.5220
     11 C8         -5.0450    1.5129    1.2889 C.2       1 <0>         0.5164
     12 O2         -4.4575    2.2138    2.0854 O.2       1 <0>        -0.5259
     13 C9         -4.3396    1.0269    0.0490 C.3       1 <0>        -0.1242
     14 C10        -2.9042    1.5565    0.0381 C.3       1 <0>        -0.0330
     15 C11        -2.1881    1.0631   -1.2207 C.3       1 <0>        -0.1032
     16 C12        -0.7527    1.5927   -1.2315 C.3       1 <0>        -0.0841
     17 C13        -0.0127    1.0858    0.0080 C.3       1 <0>        -0.1097
     18 C14        -0.7288    1.5792    1.2668 C.3       1 <0>        -0.0834
     19 C15        -2.1642    1.0497    1.2777 C.3       1 <0>        -0.1141
     20 C16        -0.7496    3.1091    1.2752 C.3       1 <0>        -0.1058
     21 C17        -1.4896    3.6159    0.0357 C.3       1 <0>        -0.0834
     22 C18        -0.7734    3.1225   -1.2231 C.3       1 <0>        -0.1097
     23 C19        -2.9250    3.0863    0.0466 C.3       1 <0>        -0.1141
     24 Br1       -11.2124    0.3049    3.1028 Br        1 <0>        -0.0049
     25 H1         -8.4173    3.6240    6.8690 H         1 <0>         0.1396
     26 H2        -10.7610    2.9943    7.2730 H         1 <0>         0.1404
     27 H3        -11.9586    1.5739    5.6619 H         1 <0>         0.1430
     28 H4         -7.2548    2.8295    4.8533 H         1 <0>         0.1348
     29 H5         -6.5146    2.1811    3.3023 H         1 <0>         0.4293
     30 H6         -6.7986    0.6080    0.8755 H         1 <0>         0.4326
     31 H7         -4.8668    1.3880   -0.8341 H         1 <0>         0.1006
     32 H8         -4.3248   -0.0630    0.0430 H         1 <0>         0.1006
     33 H9         -2.7153    1.4241   -2.1037 H         1 <0>         0.0631
     34 H10        -2.1733   -0.0268   -1.2266 H         1 <0>         0.0630
     35 H11        -0.2425    1.2411   -2.1283 H         1 <0>         0.0690
     36 H12         0.0021   -0.0041    0.0020 H         1 <0>         0.0600
     37 H13         1.0099    1.4631    0.0003 H         1 <0>         0.0601
     38 H14        -0.2017    1.2182    2.1499 H         1 <0>         0.0665
     39 H15        -2.6744    1.4012    2.1745 H         1 <0>         0.0896
     40 H16        -2.1494   -0.0402    1.2717 H         1 <0>         0.0533
     41 H17        -1.2598    3.4606    2.1720 H         1 <0>         0.0629
     42 H18         0.2730    3.4864    1.2675 H         1 <0>         0.0574
     43 H19        -1.5044    4.7058    0.0417 H         1 <0>         0.0665
     44 H20         0.2491    3.4998   -1.2308 H         1 <0>         0.0601
     45 H21        -1.3006    3.4836   -2.1062 H         1 <0>         0.0600
     46 H22        -3.4522    3.4474   -0.8365 H         1 <0>         0.0533
     47 H23        -3.4352    3.4378    0.9434 H         1 <0>         0.0896
@<TRIPOS>BOND
     1    1    6 ar
     2    1    2 ar
     3    1   25 1
     4    2    3 ar
     5    2   26 1
     6    3    4 ar
     7    3   27 1
     8    4    5 ar
     9    4   24 1
    10    5    6 ar
    11    5    7 1
    12    6   28 1
    13    7    8 2
    14    7    9 am
    15    9   10 1
    16    9   29 1
    17   10   11 am
    18   10   30 1
    19   11   12 2
    20   11   13 1
    21   13   14 1
    22   13   31 1
    23   13   32 1
    24   14   19 1
    25   14   23 1
    26   14   15 1
    27   15   16 1
    28   15   33 1
    29   15   34 1
    30   16   22 1
    31   16   17 1
    32   16   35 1
    33   17   18 1
    34   17   36 1
    35   17   37 1
    36   18   19 1
    37   18   20 1
    38   18   38 1
    39   19   39 1
    40   19   40 1
    41   20   21 1
    42   20   41 1
    43   20   42 1
    44   21   22 1
    45   21   23 1
    46   21   43 1
    47   22   44 1
    48   22   45 1
    49   23   46 1
    50   23   47 1
@<TRIPOS>MOLECULE
ZINC20367482
   41    43     0     0     0
SMALL
USER_CHARGES
N'-(3-chloro-4-fluoro-phenyl)-3-imino-5-methyl-N-(p-tolyl)isothiazole-2-carboxamidine
@<TRIPOS>ATOM
      1 C1         -5.5761    8.4282    2.7599 C.3       1 <0>        -0.1166
      2 C2         -5.3055    7.3080    1.7889 C.ar      1 <0>        -0.0994
      3 C3         -5.9377    7.2932    0.5591 C.ar      1 <0>        -0.1000
      4 C4         -5.6922    6.2678   -0.3329 C.ar      1 <0>        -0.1389
      5 C5         -4.8089    5.2509    0.0062 C.ar      1 <0>         0.1590
      6 C6         -4.1792    5.2663    1.2442 C.ar      1 <0>        -0.1092
      7 C7         -4.4251    6.2974    2.1294 C.ar      1 <0>        -0.0999
      8 N1         -4.5585    4.2110   -0.8944 N.pl3     1 <0>        -0.6496
      9 C8         -3.3143    3.6279   -0.9425 C.2       1 <0>         0.6850
     10 N2         -2.3348    4.1110   -0.2152 N.2       1 <0>        -0.5240
     11 C9         -1.0803    3.5679   -0.3081 C.ar      1 <0>         0.1334
     12 C10        -0.8855    2.2077   -0.0604 C.ar      1 <0>        -0.1220
     13 C11         0.3805    1.6670   -0.1493 C.ar      1 <0>        -0.1239
     14 C12         1.4564    2.4684   -0.4947 C.ar      1 <0>         0.0914
     15 C13         1.2686    3.8185   -0.7478 C.ar      1 <0>        -0.0570
     16 C14         0.0067    4.3713   -0.6562 C.ar      1 <0>        -0.0720
     17 Cl1         2.6221    4.8155   -1.1811 Cl        1 <0>        -0.0461
     18 F1          2.6931    1.9323   -0.5856 F         1 <0>        -0.1278
     19 N3         -3.0961    2.5372   -1.7539 N.pl3     1 <0>        -0.6030
     20 C15        -2.5603    2.5087   -3.0221 C.2       1 <0>         0.4076
     21 N4         -2.1722    3.6095   -3.6336 N.2       1 <0>        -0.7231
     22 C16        -2.4458    1.2587   -3.6252 C.2       1 <0>        -0.2383
     23 C17        -2.8789    0.1917   -2.9161 C.2       1 <0>        -0.0901
     24 S1         -3.4316    0.8932   -1.4336 S.3       1 <0>         0.2777
     25 C18        -2.8797   -1.2603   -3.3198 C.3       1 <0>        -0.0874
     26 H1         -6.2966    9.1315    2.3168 H         1 <0>         0.0647
     27 H2         -4.6369    8.9563    2.9814 H         1 <0>         0.0695
     28 H3         -5.9923    8.0144    3.6903 H         1 <0>         0.0692
     29 H4         -6.6244    8.0841    0.2960 H         1 <0>         0.1255
     30 H5         -6.1863    6.2568   -1.2932 H         1 <0>         0.1240
     31 H6         -3.4953    4.4748    1.5127 H         1 <0>         0.1361
     32 H7         -3.9324    6.3123    3.0904 H         1 <0>         0.1245
     33 H8         -5.3569    3.8594   -1.5644 H         1 <0>         0.4449
     34 H9         -1.7241    1.5806    0.2043 H         1 <0>         0.1371
     35 H10         0.5325    0.6159    0.0465 H         1 <0>         0.1455
     36 H11        -0.1391    5.4230   -0.8539 H         1 <0>         0.1442
     37 H12        -1.8661    3.5713   -4.5532 H         1 <0>         0.3545
     38 H13        -2.0334    1.1468   -4.6171 H         1 <0>         0.1619
     39 H14        -3.3027   -1.8670   -2.5056 H         1 <0>         0.0828
     40 H15        -1.8484   -1.5853   -3.5216 H         1 <0>         0.0949
     41 H16        -3.4886   -1.3883   -4.2269 H         1 <0>         0.0951
@<TRIPOS>BOND
     1    1    2 1
     2    1   26 1
     3    1   27 1
     4    1   28 1
     5    2    7 ar
     6    2    3 ar
     7    3    4 ar
     8    3   29 1
     9    4    5 ar
    10    4   30 1
    11    5    6 ar
    12    5    8 1
    13    6    7 ar
    14    6   31 1
    15    7   32 1
    16    8    9 1
    17    8   33 1
    18    9   10 2
    19    9   19 1
    20   10   11 1
    21   11   16 ar
    22   11   12 ar
    23   12   13 ar
    24   12   34 1
    25   13   14 ar
    26   13   35 1
    27   14   15 ar
    28   14   18 1
    29   15   16 ar
    30   15   17 1
    31   16   36 1
    32   19   24 1
    33   19   20 1
    34   20   21 2
    35   20   22 1
    36   21   37 1
    37   22   23 2
    38   22   38 1
    39   23   24 1
    40   23   25 1
    41   25   39 1
    42   25   40 1
    43   25   41 1
@<TRIPOS>MOLECULE
ZINC38119653
   34    36     0     0     0
SMALL
USER_CHARGES

@<TRIPOS>ATOM
      1 C1         -0.0168    1.3847    0.0097 C.ar      1 <0>        -0.1812
      2 C2          1.1705    2.0902    0.0021 C.ar      1 <0>        -0.0588
      3 C3          2.3782    1.4147   -0.0135 C.ar      1 <0>        -0.0929
      4 C4          2.3999    0.0311   -0.0216 C.ar      1 <0>        -0.0592
      5 C5          1.2157   -0.6795   -0.0137 C.ar      1 <0>        -0.1920
      6 C6          0.0021   -0.0041    0.0020 C.ar      1 <0>         0.2240
      7 N1         -1.1977   -0.7205    0.0101 N.pl3     1 <0>        -0.7315
      8 C7         -1.1763   -2.1853    0.0020 C.3       1 <0>         0.2018
      9 H1         -0.3351   -2.5331   -0.5977 H         1 <0>         0.1076
     10 C8         -1.0288   -2.7011    1.4349 C.3       1 <0>         0.0610
     11 O1         -2.1875   -2.3441    2.1912 O.3       1 <0>        -0.5636
     12 C9         -2.4624   -2.7033   -0.5885 C.ar      1 <0>        -0.0771
     13 C10        -2.4419   -3.7973   -1.4338 C.ar      1 <0>        -0.0767
     14 C11        -3.6227   -4.2755   -1.9780 C.ar      1 <0>         0.0413
     15 C12        -4.8295   -3.6516   -1.6716 C.ar      1 <0>         0.0645
     16 C13        -4.8429   -2.5554   -0.8240 C.ar      1 <0>        -0.0769
     17 C14        -3.6603   -2.0871   -0.2794 C.ar      1 <0>        -0.0505
     18 Br1        -6.4788   -1.7046   -0.4046 Br        1 <0>        -0.0245
     19 O2         -5.8358   -4.3035   -2.3245 O.3       1 <0>        -0.2948
     20 C15        -5.1892   -5.0761   -3.3532 C.3       1 <0>         0.2115
     21 O3         -3.8728   -5.3183   -2.8227 O.3       1 <0>        -0.3022
     22 Cl1         3.8686    2.3047   -0.0235 Cl        1 <0>        -0.0789
     23 H2         -0.9589    1.9124    0.0260 H         1 <0>         0.1299
     24 H3          1.1565    3.1701    0.0080 H         1 <0>         0.1325
     25 H4          3.3438   -0.4936   -0.0345 H         1 <0>         0.1319
     26 H5          1.2332   -1.7593   -0.0203 H         1 <0>         0.1286
     27 H6         -2.0447   -0.2479    0.0210 H         1 <0>         0.4045
     28 H7         -0.9237   -3.7859    1.4215 H         1 <0>         0.0572
     29 H8         -0.1452   -2.2560    1.8921 H         1 <0>         0.0589
     30 H9         -2.1629   -2.6398    3.1116 H         1 <0>         0.3828
     31 H10        -1.5047   -4.2792   -1.6702 H         1 <0>         0.1445
     32 H11        -3.6728   -1.2356    0.3847 H         1 <0>         0.1494
     33 H12        -5.7163   -6.0165   -3.5142 H         1 <0>         0.1383
     34 H13        -5.1297   -4.5057   -4.2802 H         1 <0>         0.0904
@<TRIPOS>BOND
     1    1    6 ar
     2    1    2 ar
     3    1   23 1
     4    2    3 ar
     5    2   24 1
     6    3    4 ar
     7    3   22 1
     8    4    5 ar
     9    4   25 1
    10    5    6 ar
    11    5   26 1
    12    6    7 1
    13    7    8 1
    14    7   27 1
    15    8    9 1
    16    8   10 1
    17    8   12 1
    18   10   11 1
    19   10   28 1
    20   10   29 1
    21   11   30 1
    22   12   17 ar
    23   12   13 ar
    24   13   14 ar
    25   13   31 1
    26   14   21 1
    27   14   15 ar
    28   15   16 ar
    29   15   19 1
    30   16   17 ar
    31   16   18 1
    32   17   32 1
    33   19   20 1
    34   20   21 1
    35   20   33 1
    36   20   34 1
@<TRIPOS>MOLECULE
ZINC50360552
   31    33     0     0     0
SMALL
USER_CHARGES

@<TRIPOS>ATOM
      1 C1         -0.0167    1.3777    0.0096 C.ar      1 <0>        -0.0656
      2 C2          1.1667    2.0886    0.0021 C.ar      1 <0>        -0.1434
      3 C3          2.3869    1.4124   -0.0131 C.ar      1 <0>         0.0144
      4 C4          2.4064    0.0185   -0.0207 C.ar      1 <0>        -0.1828
      5 C5          1.2129   -0.6871   -0.0131 C.ar      1 <0>         0.2203
      6 C6          0.0021   -0.0041    0.0020 C.ar      1 <0>        -0.1872
      7 N1          1.2271   -2.0839   -0.0212 N.pl3     1 <0>        -0.7478
      8 C7         -0.0341   -2.8293   -0.0131 C.3       1 <0>         0.2088
      9 C8          0.2562   -4.3080   -0.0243 C.2       1 <0>        -0.0046
     10 C9          0.4130   -5.0867    1.0611 C.2       1 <0>        -0.1528
     11 C10         0.6677   -6.3967    0.5926 C.2       1 <0>        -0.1417
     12 C11         0.6512   -6.3395   -0.7528 C.2       1 <0>         0.0161
     13 O1          0.3964   -5.0725   -1.1201 O.3       1 <0>        -0.1408
     14 Br1         0.9324   -7.7961   -1.9255 Br        1 <0>         0.0825
     15 Br2         0.9733   -7.9331    1.6518 Br        1 <0>         0.0175
     16 C12         3.6566    2.1725   -0.0216 C.2       1 <0>         0.1246
     17 C13         3.7861    3.5325   -0.0106 C.2       1 <0>        -0.2487
     18 C14         5.1484    3.8326   -0.0245 C.2       1 <0>         0.0490
     19 N2          5.8226    2.7108   -0.0432 N.2       1 <0>        -0.2852
     20 N3          4.9134    1.6453   -0.0360 N.pl3     1 <0>        -0.4738
     21 H1          5.1379    0.7017   -0.0421 H         1 <0>         0.4370
     22 H2         -0.9601    1.9031    0.0260 H         1 <0>         0.1305
     23 H3          1.1478    3.1684    0.0077 H         1 <0>         0.1293
     24 H4          3.3482   -0.5101   -0.0329 H         1 <0>         0.1168
     25 H5         -0.9268   -0.5551    0.0079 H         1 <0>         0.1253
     26 H6          2.0719   -2.5603   -0.0321 H         1 <0>         0.4039
     27 H7         -0.5997   -2.5768    0.8838 H         1 <0>         0.1014
     28 H8         -0.6170   -2.5667   -0.8960 H         1 <0>         0.0862
     29 H9          0.3559   -4.7719    2.0926 H         1 <0>         0.1710
     30 H10         2.9774    4.2482    0.0054 H         1 <0>         0.1526
     31 H11         5.5753    4.8246   -0.0211 H         1 <0>         0.1872
@<TRIPOS>BOND
     1    1    6 ar
     2    1    2 ar
     3    1   22 1
     4    2    3 ar
     5    2   23 1
     6    3    4 ar
     7    3   16 1
     8    4    5 ar
     9    4   24 1
    10    5    6 ar
    11    5    7 1
    12    6   25 1
    13    7    8 1
    14    7   26 1
    15    8    9 1
    16    8   27 1
    17    8   28 1
    18    9   13 1
    19    9   10 2
    20   10   11 1
    21   10   29 1
    22   11   12 2
    23   11   15 1
    24   12   13 1
    25   12   14 1
    26   16   20 1
    27   16   17 2
    28   17   18 1
    29   17   30 1
    30   18   19 2
    31   18   31 1
    32   19   20 1
    33   20   21 1
@<TRIPOS>MOLECULE
ZINC67582584
   44    45     0     0     0
SMALL
USER_CHARGES

@<TRIPOS>ATOM
      1 C1         -0.0143    1.4860   -0.0354 C.3       1 <0>        -0.1592
      2 C2          0.0021   -0.0437   -0.0106 C.3       1 <0>         0.1996
      3 H1          0.5105   -0.4161   -0.9000 H         1 <0>         0.1010
      4 C3         -1.4131   -0.5610    0.0126 C.ar      1 <0>        -0.0764
      5 C4         -2.1231   -0.5783    1.1987 C.ar      1 <0>        -0.1092
      6 C5         -3.4213   -1.0522    1.2204 C.ar      1 <0>        -0.0856
      7 C6         -4.0101   -1.5092    0.0551 C.ar      1 <0>        -0.0900
      8 C7         -3.2993   -1.4916   -1.1314 C.ar      1 <0>        -0.0849
      9 C8         -2.0030   -1.0127   -1.1532 C.ar      1 <0>        -0.0998
     10 Br1        -5.7860   -2.1582    0.0843 Br        1 <0>        -0.0467
     11 N1          0.7104   -0.5052    1.1859 N.am      1 <0>        -0.7399
     12 C9          2.0532   -0.6197    1.1720 C.2       1 <0>         0.7112
     13 O1          2.6768   -0.3401    0.1663 O.2       1 <0>        -0.5847
     14 N2          2.7048   -1.0442    2.2728 N.am      1 <0>        -0.6225
     15 C10         1.9535   -1.3811    3.4844 C.3       1 <0>         0.0692
     16 C11         4.1644   -1.1687    2.2576 C.3       1 <0>         0.1934
     17 H2          4.5529   -0.7757    1.3180 H         1 <0>         0.1137
     18 C12         4.7560   -0.3765    3.4252 C.3       1 <0>        -0.1592
     19 C13         4.5462   -2.6204    2.3909 C.ar      1 <0>        -0.0810
     20 C14         5.3772   -3.2052    1.4530 C.ar      1 <0>        -0.1125
     21 C15         5.7292   -4.5367    1.5725 C.ar      1 <0>        -0.1010
     22 C16         5.2509   -5.2868    2.6297 C.ar      1 <0>        -0.1440
     23 C17         4.4172   -4.7025    3.5719 C.ar      1 <0>         0.1034
     24 C18         4.0703   -3.3643    3.4530 C.ar      1 <0>        -0.1403
     25 O2          3.9454   -5.4381    4.6126 O.3       1 <0>        -0.4994
     26 H3          1.0094    1.8601   -0.0522 H         1 <0>         0.0689
     27 H4         -0.5413    1.8293   -0.9257 H         1 <0>         0.0696
     28 H5         -0.5227    1.8583    0.8540 H         1 <0>         0.0586
     29 H6         -1.6632   -0.2218    2.1085 H         1 <0>         0.1283
     30 H7         -3.9758   -1.0660    2.1471 H         1 <0>         0.1352
     31 H8         -3.7587   -1.8483   -2.0415 H         1 <0>         0.1365
     32 H9         -1.4493   -0.9951   -2.0803 H         1 <0>         0.1362
     33 H10         0.2129   -0.7282    1.9882 H         1 <0>         0.3957
     34 H11         1.6041   -2.4116    3.4206 H         1 <0>         0.0599
     35 H12         2.5995   -1.2697    4.3553 H         1 <0>         0.0822
     36 H13         1.0978   -0.7126    3.5790 H         1 <0>         0.0653
     37 H14         4.3676   -0.7695    4.3647 H         1 <0>         0.0610
     38 H15         5.8420   -0.4691    3.4139 H         1 <0>         0.0741
     39 H16         4.4799    0.6736    3.3287 H         1 <0>         0.0663
     40 H17         5.7516   -2.6208    0.6255 H         1 <0>         0.1278
     41 H18         6.3784   -4.9912    0.8387 H         1 <0>         0.1291
     42 H19         5.5256   -6.3271    2.7223 H         1 <0>         0.1284
     43 H20         3.4251   -2.9059    4.1879 H         1 <0>         0.1312
     44 H21         4.5134   -5.4218    5.3951 H         1 <0>         0.3907
@<TRIPOS>BOND
     1    1    2 1
     2    1   26 1
     3    1   27 1
     4    1   28 1
     5    2    3 1
     6    2    4 1
     7    2   11 1
     8    4    9 ar
     9    4    5 ar
    10    5    6 ar
    11    5   29 1
    12    6    7 ar
    13    6   30 1
    14    7    8 ar
    15    7   10 1
    16    8    9 ar
    17    8   31 1
    18    9   32 1
    19   11   12 am
    20   11   33 1
    21   12   13 2
    22   12   14 am
    23   14   15 1
    24   14   16 1
    25   15   34 1
    26   15   35 1
    27   15   36 1
    28   16   17 1
    29   16   18 1
    30   16   19 1
    31   18   37 1
    32   18   38 1
    33   18   39 1
    34   19   24 ar
    35   19   20 ar
    36   20   21 ar
    37   20   40 1
    38   21   22 ar
    39   21   41 1
    40   22   23 ar
    41   22   42 1
    42   23   24 ar
    43   23   25 1
    44   24   43 1
    45   25   44 1
@<TRIPOS>MOLECULE
ZINC12162806
   61    65     0     0     0
SMALL
USER_CHARGES
(1S)-3-phenyl-1-[4-(4-quinolylmethyl)-3,5-dihydro-2H-1,4-benzoxazepin-7-yl]propan-1-ol
@<TRIPOS>ATOM
      1 C1         -0.0167    1.3781    0.0096 C.ar      1 <0>        -0.1211
      2 C2          1.1709    2.0855    0.0021 C.ar      1 <0>        -0.1161
      3 C3          2.3773    1.4107   -0.0141 C.ar      1 <0>        -0.1175
      4 C4          2.3960    0.0285   -0.0217 C.ar      1 <0>        -0.0890
      5 C5          1.2084   -0.6789   -0.0136 C.ar      1 <0>        -0.1194
      6 C6          0.0021   -0.0041    0.0020 C.ar      1 <0>        -0.1173
      7 C7          3.7112   -0.7071   -0.0392 C.3       1 <0>        -0.0764
      8 C8          4.1416   -0.9479   -1.4876 C.3       1 <0>        -0.1406
      9 C9          5.4768   -1.6947   -1.5054 C.3       1 <0>         0.1445
     10 H1          5.3889   -2.6101   -0.9202 H         1 <0>         0.1141
     11 C10         5.8403   -2.0400   -2.9266 C.ar      1 <0>        -0.1100
     12 C11         6.4985   -1.1141   -3.7151 C.ar      1 <0>        -0.0642
     13 C12         6.8417   -1.4276   -5.0165 C.ar      1 <0>        -0.1140
     14 C13         6.5217   -2.6768   -5.5293 C.ar      1 <0>         0.1074
     15 C14         5.8508   -3.5931   -4.7422 C.ar      1 <0>        -0.1865
     16 C15         5.5199   -3.2851   -3.4386 C.ar      1 <0>        -0.0635
     17 C16         5.4753   -4.9414   -5.3256 C.3       1 <0>         0.0538
     18 C17         7.3335   -5.3979   -6.8319 C.3       1 <0>        -0.0473
     19 C18         7.9241   -4.0055   -6.8868 C.3       1 <0>         0.0464
     20 O1          6.8947   -3.0130   -6.7945 O.3       1 <0>        -0.3103
     21 C19         6.4428   -7.1566   -5.4383 C.3       1 <0>         0.0442
     22 C20         7.6493   -7.9230   -5.9159 C.ar      1 <0>        -0.1065
     23 C21         7.6837   -8.4693   -7.1676 C.ar      1 <0>        -0.1260
     24 C22         8.8117   -9.1689   -7.5898 C.ar      1 <0>         0.1270
     25 N1          9.8537   -9.3324   -6.8110 N.ar      1 <0>        -0.4373
     26 C23         9.8822   -8.8283   -5.5735 C.ar      1 <0>         0.1273
     27 C24         8.7695   -8.1007   -5.0829 C.ar      1 <0>        -0.0840
     28 C25         8.8041   -7.5735   -3.7817 C.ar      1 <0>        -0.1421
     29 C26         9.9063   -7.7673   -3.0065 C.ar      1 <0>        -0.0748
     30 C27        11.0017   -8.4824   -3.4869 C.ar      1 <0>        -0.0983
     31 C28        11.0021   -9.0071   -4.7424 C.ar      1 <0>        -0.0721
     32 O2          6.4943   -0.8648   -0.9416 O.3       1 <0>        -0.5472
     33 H2         -0.9592    1.9054    0.0170 H         1 <0>         0.1234
     34 H3          1.1563    3.1654    0.0081 H         1 <0>         0.1237
     35 H4          3.3051    1.9634   -0.0207 H         1 <0>         0.1209
     36 H5          1.2231   -1.7587   -0.0199 H         1 <0>         0.1190
     37 H6         -0.9258   -0.5567    0.0079 H         1 <0>         0.1228
     38 H7          4.4679   -0.1107    0.4703 H         1 <0>         0.0820
     39 H8          3.5990   -1.6641    0.4703 H         1 <0>         0.0734
     40 H9          3.3848   -1.5443   -1.9971 H         1 <0>         0.0762
     41 H10         4.2537    0.0092   -1.9971 H         1 <0>         0.0724
     42 H11         6.7456   -0.1429   -3.3124 H         1 <0>         0.1405
     43 H12         7.3559   -0.7039   -5.6316 H         1 <0>         0.1471
     44 H13         5.0102   -4.0107   -2.8220 H         1 <0>         0.1418
     45 H14         4.8313   -5.4754   -4.6268 H         1 <0>         0.1406
     46 H15         4.9500   -4.7975   -6.2697 H         1 <0>         0.1466
     47 H16         8.1279   -6.1211   -7.0166 H         1 <0>         0.1394
     48 H17         6.5892   -5.4924   -7.6226 H         1 <0>         0.1437
     49 H18         8.6206   -3.8781   -6.0581 H         1 <0>         0.0821
     50 H19         8.4595   -3.8797   -7.8279 H         1 <0>         0.1471
     51 H20         6.2422   -7.4071   -4.3966 H         1 <0>         0.1415
     52 H21         5.5792   -7.4214   -6.0485 H         1 <0>         0.1494
     53 H22         6.8387   -8.3555   -7.8304 H         1 <0>         0.1509
     54 H23         8.8267   -9.5915   -8.5835 H         1 <0>         0.1743
     55 H24         7.9615   -7.0172   -3.3984 H         1 <0>         0.1211
     56 H25         9.9319   -7.3618   -2.0058 H         1 <0>         0.1387
     57 H26        11.8642   -8.6228   -2.8522 H         1 <0>         0.1430
     58 H27        11.8593   -9.5587   -5.0991 H         1 <0>         0.1477
     59 H28         6.6276   -0.0309   -1.4127 H         1 <0>         0.3774
     60 N2          6.7253   -5.7145   -5.5226 N.4       1 <0>        -0.3939
     61 H29         7.3890   -5.4622   -4.7809 H         1 <0>         0.4243
@<TRIPOS>BOND
     1    1    6 ar
     2    1    2 ar
     3    1   33 1
     4    2    3 ar
     5    2   34 1
     6    3    4 ar
     7    3   35 1
     8    4    5 ar
     9    4    7 1
    10    5    6 ar
    11    5   36 1
    12    6   37 1
    13    7    8 1
    14    7   38 1
    15    7   39 1
    16    8    9 1
    17    8   40 1
    18    8   41 1
    19    9   10 1
    20    9   11 1
    21    9   32 1
    22   11   16 ar
    23   11   12 ar
    24   12   13 ar
    25   12   42 1
    26   13   14 ar
    27   13   43 1
    28   14   20 1
    29   14   15 ar
    30   15   16 ar
    31   15   17 1
    32   16   44 1
    33   17   45 1
    34   17   46 1
    35   17   60 1
    36   18   19 1
    37   18   47 1
    38   18   48 1
    39   18   60 1
    40   19   20 1
    41   19   49 1
    42   19   50 1
    43   21   22 1
    44   21   51 1
    45   21   52 1
    46   21   60 1
    47   22   27 ar
    48   22   23 ar
    49   23   24 ar
    50   23   53 1
    51   24   25 ar
    52   24   54 1
    53   25   26 ar
    54   26   31 ar
    55   26   27 ar
    56   27   28 ar
    57   28   29 ar
    58   28   55 1
    59   29   30 ar
    60   29   56 1
    61   30   31 ar
    62   30   57 1
    63   31   58 1
    64   32   59 1
    65   60   61 1
@<TRIPOS>MOLECULE
ZINC27532807
   67    71     0     0     0
SMALL
USER_CHARGES
(1-ethyl-2-methyl-indol-3-yl)-dipropyl-BLAHol
@<TRIPOS>ATOM
      1 C1         -0.0187    1.5258    0.0104 C.3       1 <0>        -0.1586
      2 C2          0.0021   -0.0041    0.0020 C.3       1 <0>        -0.1316
      3 C3          0.7182   -0.4975   -1.2568 C.3       1 <0>        -0.1028
      4 C4          0.7390   -2.0273   -1.2652 C.3       1 <0>        -0.0881
      5 C5          1.4833   -2.5492   -0.0304 C.3       1 <0>         0.0026
      6 N1          1.4955   -4.0194   -0.0488 N.4       1 <0>        -0.4211
      7 C6          2.2019   -4.5337   -1.2320 C.3       1 <0>         0.0062
      8 C7          1.4640   -4.0695   -2.4933 C.3       1 <0>        -0.1269
      9 C8          1.4547   -2.5361   -2.5230 C.3       1 <0>         0.1251
     10 O1          2.7964   -2.0449   -2.5433 O.3       1 <0>        -0.5923
     11 C9          0.0158   -4.5704   -2.4436 C.3       1 <0>         0.0377
     12 N2         -0.6110   -4.0545   -1.1997 N.3       1 <0>        -0.5075
     13 C10        -0.6944   -2.5720   -1.2604 C.3       1 <0>         0.0434
     14 C11         0.1149   -4.5233   -0.0102 C.3       1 <0>         0.3006
     15 C12         0.1303   -6.0301    0.0075 C.2       1 <0>        -0.2551
     16 C13        -0.8084   -6.8443   -0.5003 C.2       1 <0>         0.1725
     17 N3         -0.4525   -8.1500   -0.2983 N.pl3     1 <0>        -0.4665
     18 C14         0.7548   -8.2094    0.3612 C.ar      1 <0>         0.1056
     19 C15         1.1756   -6.8842    0.5766 C.ar      1 <0>        -0.1002
     20 C16         2.3849   -6.6346    1.2277 C.ar      1 <0>        -0.1091
     21 C17         3.1564   -7.6805    1.6502 C.ar      1 <0>        -0.1121
     22 C18         2.7474   -8.9895    1.4372 C.ar      1 <0>        -0.0956
     23 C19         1.5538   -9.2585    0.8032 C.ar      1 <0>        -0.1050
     24 C20        -1.2384   -9.3117   -0.7215 C.3       1 <0>         0.0934
     25 C21        -0.8199   -9.7232   -2.1345 C.3       1 <0>        -0.1737
     26 C22        -2.0680   -6.3879   -1.1902 C.3       1 <0>        -0.1106
     27 C23         2.1642   -4.6134   -3.7402 C.3       1 <0>        -0.1086
     28 C24         2.1663   -6.1428   -3.6976 C.3       1 <0>        -0.1252
     29 C25         2.8665   -6.6868   -4.9445 C.3       1 <0>        -0.1581
     30 H1         -0.5336    1.8805    0.9154 H         1 <0>         0.0608
     31 H2         -0.5508    1.8901   -0.8808 H         1 <0>         0.0594
     32 H3          1.0133    1.9066    0.0026 H         1 <0>         0.0580
     33 H4          0.5342   -0.3684    0.8932 H         1 <0>         0.0601
     34 H5         -1.0299   -0.3849    0.0099 H         1 <0>         0.0683
     35 H6          0.1861   -0.1331   -2.1479 H         1 <0>         0.0814
     36 H7          1.7502   -0.1167   -1.2647 H         1 <0>         0.0856
     37 H8          2.5174   -2.1743   -0.0400 H         1 <0>         0.1362
     38 H9          0.9746   -2.1986    0.8797 H         1 <0>         0.1304
     39 H10         3.2318   -4.1473   -1.2409 H         1 <0>         0.1274
     40 H11         2.2230   -5.6330   -1.1974 H         1 <0>         0.1376
     41 H12         0.9933   -2.1487   -3.4433 H         1 <0>         0.0801
     42 H13         3.4659   -2.3080   -3.3755 H         1 <0>         0.4213
     43 H14        -0.5305   -4.2005   -3.3238 H         1 <0>         0.1062
     44 H15         0.0081   -5.6704   -2.4428 H         1 <0>         0.1093
     45 H16        -1.2320   -2.1818   -0.3836 H         1 <0>         0.1105
     46 H17        -1.2106   -2.2541   -2.1783 H         1 <0>         0.1127
     47 H18        -0.3821   -4.1271    0.8876 H         1 <0>         0.1465
     48 H19         2.7098   -5.6186    1.3966 H         1 <0>         0.1019
     49 H20         4.0921   -7.4869    2.1535 H         1 <0>         0.1315
     50 H21         3.3680   -9.8055    1.7769 H         1 <0>         0.1353
     51 H22         1.2451  -10.2805    0.6406 H         1 <0>         0.1278
     52 H23        -1.0603  -10.1471   -0.0284 H         1 <0>         0.0968
     53 H24        -2.3075   -9.0527   -0.7165 H         1 <0>         0.0990
     54 H25        -1.4100  -10.5955   -2.4523 H         1 <0>         0.0838
     55 H26         0.2492   -9.9822   -2.1395 H         1 <0>         0.0644
     56 H27        -0.9980   -8.8878   -2.8276 H         1 <0>         0.0632
     57 H28        -2.6525   -7.2652   -1.5043 H         1 <0>         0.0690
     58 H29        -1.8052   -5.7870   -2.0733 H         1 <0>         0.1018
     59 H30        -2.6657   -5.7783   -0.4965 H         1 <0>         0.0947
     60 H31         1.6296   -4.2723   -4.6390 H         1 <0>         0.0839
     61 H32         3.2006   -4.2459   -3.7684 H         1 <0>         0.0768
     62 H33         2.7008   -6.4838   -2.7987 H         1 <0>         0.0612
     63 H34         1.1299   -6.5103   -3.6694 H         1 <0>         0.0652
     64 H35         2.8680   -7.7864   -4.9138 H         1 <0>         0.0599
     65 H36         3.9029   -6.3194   -4.9727 H         1 <0>         0.0585
     66 H37         2.3320   -6.3458   -5.8434 H         1 <0>         0.0594
     67 H38         2.0371   -4.3760    0.8398 H         1 <0>         0.4359
@<TRIPOS>BOND
     1    1    2 1
     2    1   30 1
     3    1   31 1
     4    1   32 1
     5    2    3 1
     6    2   33 1
     7    2   34 1
     8    3    4 1
     9    3   35 1
    10    3   36 1
    11    4    9 1
    12    4   13 1
    13    4    5 1
    14    5    6 1
    15    5   37 1
    16    5   38 1
    17    6   14 1
    18    6    7 1
    19    6   67 1
    20    7    8 1
    21    7   39 1
    22    7   40 1
    23    8    9 1
    24    8   11 1
    25    8   27 1
    26    9   10 1
    27    9   41 1
    28   10   42 1
    29   11   12 1
    30   11   43 1
    31   11   44 1
    32   12   13 1
    33   12   14 1
    34   13   45 1
    35   13   46 1
    36   14   15 1
    37   14   47 1
    38   15   19 1
    39   15   16 2
    40   16   17 1
    41   16   26 1
    42   17   18 1
    43   17   24 1
    44   18   23 ar
    45   18   19 ar
    46   19   20 ar
    47   20   21 ar
    48   20   48 1
    49   21   22 ar
    50   21   49 1
    51   22   23 ar
    52   22   50 1
    53   23   51 1
    54   24   25 1
    55   24   52 1
    56   24   53 1
    57   25   54 1
    58   25   55 1
    59   25   56 1
    60   26   57 1
    61   26   58 1
    62   26   59 1
    63   27   28 1
    64   27   60 1
    65   27   61 1
    66   28   29 1
    67   28   62 1
    68   28   63 1
    69   29   64 1
    70   29   65 1
    71   29   66 1
@<TRIPOS>MOLECULE
ZINC38546112
   55    58     0     0     0
SMALL
USER_CHARGES

@<TRIPOS>ATOM
      1 C1         -0.0187    1.5258    0.0104 C.3       1 <0>        -0.1508
      2 C2          0.0021   -0.0041    0.0020 C.3       1 <0>        -0.0466
      3 C3          0.7074   -0.4901   -1.2379 C.2       1 <0>        -0.1476
      4 C4          2.0224   -0.7605   -1.4193 C.2       1 <0>        -0.1695
      5 C5          2.4536   -1.2008   -2.6572 C.2       1 <0>        -0.2218
      6 C6          1.5389   -1.3485   -3.6564 C.2       1 <0>         0.1061
      7 S1          0.0244   -0.8653   -2.8439 S.3       1 <0>         0.2248
      8 N1          1.7344   -1.7732   -4.9720 N.am      1 <0>        -0.6217
      9 C7          0.6875   -1.8532   -5.8170 C.2       1 <0>         0.6086
     10 O1         -0.4286   -1.5551   -5.4331 O.2       1 <0>        -0.4710
     11 C8          0.8928   -2.2992   -7.1985 C.2       1 <0>        -0.1089
     12 C9         -0.0745   -2.4198   -8.1550 C.2       1 <0>        -0.0839
     13 C10         0.5641   -2.8738   -9.3197 C.2       1 <0>        -0.2227
     14 C11         1.8763   -3.0089   -9.0269 C.2       1 <0>         0.0192
     15 O2          2.0713   -2.6569   -7.7493 O.3       1 <0>        -0.1717
     16 C12         3.9087   -1.5111   -2.8970 C.3       1 <0>         0.1544
     17 H1          4.1978   -1.1556   -3.8860 H         1 <0>         0.1386
     18 C13         4.1247   -3.0003   -2.8155 C.ar      1 <0>        -0.1003
     19 C14         4.2264   -3.6174   -1.5823 C.ar      1 <0>        -0.1269
     20 C15         4.4246   -4.9832   -1.5060 C.ar      1 <0>        -0.0677
     21 C16         4.5218   -5.7336   -2.6627 C.ar      1 <0>        -0.1303
     22 C17         4.4202   -5.1169   -3.8979 C.ar      1 <0>         0.1244
     23 C18         4.2156   -3.7493   -3.9730 C.ar      1 <0>        -0.1362
     24 F1          4.5156   -5.8493   -5.0291 F         1 <0>        -0.1231
     25 N2          4.7267   -0.8411   -1.8773 N.4       1 <0>        -0.3754
     26 C19         4.5085    0.6085   -1.9519 C.3       1 <0>        -0.0172
     27 C20         5.2957    1.3046   -0.8396 C.3       1 <0>        -0.1428
     28 C21         6.7871    1.0018   -1.0109 C.3       1 <0>        -0.1390
     29 C22         6.9937   -0.5155   -1.0059 C.3       1 <0>        -0.1429
     30 C23         6.1436   -1.1442   -2.1121 C.3       1 <0>        -0.0125
     31 H2          1.0039    1.9031    0.0027 H         1 <0>         0.0567
     32 H3         -0.5459    1.8868   -0.8726 H         1 <0>         0.0612
     33 H4         -0.5289    1.8773    0.9072 H         1 <0>         0.0712
     34 H5          0.5293   -0.3651    0.8851 H         1 <0>         0.0902
     35 H6         -1.0205   -0.3814    0.0098 H         1 <0>         0.0872
     36 H7          2.7243   -0.6336   -0.6084 H         1 <0>         0.1261
     37 H8          2.6238   -2.0108   -5.2779 H         1 <0>         0.4189
     38 H9         -1.1269   -2.2072   -8.0379 H         1 <0>         0.1678
     39 H10         0.0947   -3.0774  -10.2708 H         1 <0>         0.1667
     40 H11         2.6423   -3.3422   -9.7114 H         1 <0>         0.2195
     41 H12         4.1512   -3.0317   -0.6780 H         1 <0>         0.1260
     42 H13         4.5038   -5.4641   -0.5423 H         1 <0>         0.1482
     43 H14         4.6774   -6.8007   -2.6028 H         1 <0>         0.1505
     44 H15         4.1317   -3.2677   -4.9361 H         1 <0>         0.1374
     45 H16         4.8461    0.9769   -2.9206 H         1 <0>         0.1287
     46 H17         3.4463    0.8222   -1.8331 H         1 <0>         0.1406
     47 H18         5.1338    2.3809   -0.8979 H         1 <0>         0.1138
     48 H19         4.9587    0.9371    0.1296 H         1 <0>         0.0867
     49 H20         7.1364    1.4142   -1.9575 H         1 <0>         0.0824
     50 H21         7.3465    1.4486   -0.1889 H         1 <0>         0.0951
     51 H22         8.0455   -0.7402   -1.1830 H         1 <0>         0.1135
     52 H23         6.6919   -0.9208   -0.0401 H         1 <0>         0.0871
     53 H24         6.2885   -2.2245   -2.1114 H         1 <0>         0.1311
     54 H25         6.4464   -0.7385   -3.0774 H         1 <0>         0.1299
     55 H26         4.4600   -1.1726   -0.9624 H         1 <0>         0.4180
@<TRIPOS>BOND
     1    1    2 1
     2    1   31 1
     3    1   32 1
     4    1   33 1
     5    2    3 1
     6    2   34 1
     7    2   35 1
     8    3    7 1
     9    3    4 2
    10    4    5 1
    11    4   36 1
    12    5    6 2
    13    5   16 1
    14    6    7 1
    15    6    8 1
    16    8    9 am
    17    8   37 1
    18    9   10 2
    19    9   11 1
    20   11   15 1
    21   11   12 2
    22   12   13 1
    23   12   38 1
    24   13   14 2
    25   13   39 1
    26   14   15 1
    27   14   40 1
    28   16   17 1
    29   16   18 1
    30   16   25 1
    31   18   23 ar
    32   18   19 ar
    33   19   20 ar
    34   19   41 1
    35   20   21 ar
    36   20   42 1
    37   21   22 ar
    38   21   43 1
    39   22   23 ar
    40   22   24 1
    41   23   44 1
    42   25   30 1
    43   25   26 1
    44   25   55 1
    45   26   27 1
    46   26   45 1
    47   26   46 1
    48   27   28 1
    49   27   47 1
    50   27   48 1
    51   28   29 1
    52   28   49 1
    53   28   50 1
    54   29   30 1
    55   29   51 1
    56   29   52 1
    57   30   53 1
    58   30   54 1
@<TRIPOS>MOLECULE
ZINC63598798
   49    52     0     0     0
SMALL
USER_CHARGES

@<TRIPOS>ATOM
      1 C1         -0.0052    1.5567   -0.0076 C.3       1 <0>        -0.1611
      2 C2          0.0190    0.0269    0.0010 C.3       1 <0>         0.1474
      3 H1         -0.9980   -0.3641    0.0319 H         1 <0>         0.1635
      4 C3          0.7387   -0.4897   -1.2251 C.2       1 <0>        -0.0900
      5 C4          1.8273   -1.2116   -0.7460 C.ar      1 <0>        -0.1974
      6 C5          2.8588   -1.9238   -1.3965 C.ar      1 <0>        -0.0492
      7 C6          3.8134   -2.5489   -0.6602 C.ar      1 <0>        -0.1461
      8 C7          3.8043   -2.5067    0.7347 C.ar      1 <0>         0.0315
      9 C8          2.8438   -1.8419    1.4241 C.ar      1 <0>        -0.1944
     10 C9          1.8137   -1.1651    0.7238 C.ar      1 <0>         0.3180
     11 N1          0.7822   -0.4595    1.1546 N.pl3     1 <0>        -0.6172
     12 S1          0.3171   -0.2463   -2.8121 S.3       1 <0>         0.3553
     13 C10         1.6797   -0.9934   -3.7478 C.3       1 <0>        -0.1181
     14 C11         1.4913   -0.7166   -5.2171 C.2       1 <0>         0.2744
     15 N2          0.5104   -0.0467   -5.7004 N.2       1 <0>        -0.2827
     16 N3          0.5909    0.0526   -7.0948 N.pl3     1 <0>        -0.6282
     17 C12         1.8115   -0.6742   -7.4862 C.3       1 <0>         0.4017
     18 H2          2.5170   -0.0024   -7.9751 H         1 <0>         0.1210
     19 N4          2.3611   -1.1511   -6.2055 N.pl3     1 <0>        -0.6287
     20 C13         3.5849   -1.9333   -6.0141 C.3       1 <0>         0.1112
     21 S2          1.4026   -2.0672   -8.5738 S.3       1 <0>        -0.2668
     22 C14         0.2662   -3.0775   -7.5844 C.3       1 <0>        -0.0251
     23 C15        -0.1566   -4.2845   -8.3816 C.ar      1 <0>        -0.0793
     24 C16        -1.2761   -4.2209   -9.1902 C.ar      1 <0>        -0.0864
     25 C17        -1.6644   -5.3276   -9.9215 C.ar      1 <0>        -0.1076
     26 C18        -0.9324   -6.4991   -9.8442 C.ar      1 <0>        -0.0263
     27 C19         0.1879   -6.5621   -9.0348 C.ar      1 <0>        -0.1089
     28 C20         0.5784   -5.4530   -8.3083 C.ar      1 <0>        -0.0882
     29 Cl1        -1.4199   -7.8897  -10.7621 Cl        1 <0>        -0.0594
     30 H3          1.0164    1.9361   -0.0260 H         1 <0>         0.0828
     31 H4         -0.5387    1.9066   -0.8914 H         1 <0>         0.1022
     32 H5         -0.5106    1.9171    0.8883 H         1 <0>         0.0988
     33 H6          2.8882   -1.9714   -2.4750 H         1 <0>         0.1496
     34 H7          4.5985   -3.0912   -1.1661 H         1 <0>         0.1520
     35 H8          4.5835   -3.0179    1.2805 H         1 <0>         0.1565
     36 H9          2.8641   -1.8277    2.5038 H         1 <0>         0.1558
     37 H10         2.6258   -0.5658   -3.4159 H         1 <0>         0.1451
     38 H11         1.6887   -2.0703   -3.5791 H         1 <0>         0.1440
     39 H12        -0.0311    0.5075   -7.6840 H         1 <0>         0.4579
     40 H13         3.7246   -2.1354   -4.9521 H         1 <0>         0.0770
     41 H14         3.5022   -2.8757   -6.5554 H         1 <0>         0.0774
     42 H15         4.4386   -1.3708   -6.3922 H         1 <0>         0.0733
     43 H16         0.7682   -3.4017   -6.6728 H         1 <0>         0.0839
     44 H17        -0.6127   -2.4873   -7.3250 H         1 <0>         0.0902
     45 H18        -1.8476   -3.3065   -9.2501 H         1 <0>         0.1332
     46 H19        -2.5392   -5.2780  -10.5529 H         1 <0>         0.1385
     47 H20         0.7594   -7.4764   -8.9739 H         1 <0>         0.1378
     48 H21         1.4556   -5.5006   -7.6802 H         1 <0>         0.1310
     49 H22         0.5647   -0.2900    2.0846 H         1 <0>         0.4500
@<TRIPOS>BOND
     1    1    2 1
     2    1   30 1
     3    1   31 1
     4    1   32 1
     5    2    3 1
     6    2   11 1
     7    2    4 1
     8    4    5 2
     9    4   12 1
    10    5   10 ar
    11    5    6 ar
    12    6    7 ar
    13    6   33 1
    14    7    8 ar
    15    7   34 1
    16    8    9 ar
    17    8   35 1
    18    9   10 ar
    19    9   36 1
    20   10   11 2
    21   11   49 1
    22   12   13 1
    23   13   14 1
    24   13   37 1
    25   13   38 1
    26   14   19 1
    27   14   15 2
    28   15   16 1
    29   16   17 1
    30   16   39 1
    31   17   18 1
    32   17   19 1
    33   17   21 1
    34   19   20 1
    35   20   40 1
    36   20   41 1
    37   20   42 1
    38   21   22 1
    39   22   23 1
    40   22   43 1
    41   22   44 1
    42   23   28 ar
    43   23   24 ar
    44   24   25 ar
    45   24   45 1
    46   25   26 ar
    47   25   46 1
    48   26   27 ar
    49   26   29 1
    50   27   28 ar
    51   27   47 1
    52   28   48 1
@<TRIPOS>MOLECULE
ZINC65060105
   61    64     0     0     0
SMALL
USER_CHARGES

@<TRIPOS>ATOM
      1 C1         -0.0187    1.5258    0.0104 C.3       1 <0>        -0.1467
      2 C2          0.0021   -0.0041    0.0020 C.3       1 <0>        -0.0929
      3 C3          0.7309   -0.5033    1.2229 C.ar      1 <0>        -0.0641
      4 C4          2.0970   -0.7095    1.1762 C.ar      1 <0>        -0.1184
      5 C5          2.7656   -1.1675    2.2961 C.ar      1 <0>        -0.0956
      6 C6          2.0682   -1.4187    3.4629 C.ar      1 <0>        -0.1251
      7 C7          0.7022   -1.2116    3.5099 C.ar      1 <0>        -0.0967
      8 C8          0.0343   -0.7496    2.3912 C.ar      1 <0>        -0.1195
      9 C9          2.7969   -1.9189    4.6834 C.3       1 <0>         0.1620
     10 N1          3.2450   -0.7783    5.4862 N.am      1 <0>        -0.7200
     11 C10         3.9236   -0.9858    6.6321 C.2       1 <0>         0.5147
     12 O1          4.1632   -2.1167    6.9986 O.2       1 <0>        -0.5255
     13 C11         4.3846    0.1876    7.4578 C.3       1 <0>        -0.1213
     14 C12         3.1713    1.0106    7.9003 C.3       1 <0>        -0.1389
     15 C13         3.6392    2.1538    8.8034 C.3       1 <0>        -0.0048
     16 N2          4.3161    1.6038    9.9840 N.4       1 <0>        -0.3831
     17 C14         5.5209    0.8734    9.5722 C.3       1 <0>        -0.0167
     18 C15         5.1254   -0.3191    8.6987 C.3       1 <0>        -0.1246
     19 C16         4.6943    2.7006   10.8851 C.3       1 <0>         0.0844
     20 C17         5.2783    2.1311   12.1522 C.2       1 <0>        -0.2620
     21 C18         4.6426    1.9735   13.3239 C.2       1 <0>         0.1283
     22 N3          5.4924    1.4257   14.2458 N.pl3     1 <0>        -0.4686
     23 C19         6.7278    1.2120   13.6750 C.ar      1 <0>         0.0979
     24 C20         6.6455    1.6386   12.3370 C.ar      1 <0>        -0.0859
     25 C21         7.7600    1.5351   11.5024 C.ar      1 <0>        -0.0903
     26 C22         8.9343    1.0109   11.9960 C.ar      1 <0>        -0.0384
     27 C23         9.0134    0.5865   13.3163 C.ar      1 <0>        -0.0848
     28 C24         7.9247    0.6904   14.1540 C.ar      1 <0>        -0.0966
     29 Cl1        10.3227    0.8794   10.9623 Cl        1 <0>        -0.0512
     30 C25         5.1410    1.1138   15.6334 C.3       1 <0>         0.0652
     31 H1          1.0039    1.9031    0.0027 H         1 <0>         0.0555
     32 H2         -0.5459    1.8868   -0.8726 H         1 <0>         0.0623
     33 H3         -0.5289    1.8773    0.9072 H         1 <0>         0.0550
     34 H4         -1.0205   -0.3814    0.0098 H         1 <0>         0.0754
     35 H5          0.5123   -0.3556   -0.8948 H         1 <0>         0.0758
     36 H6          2.6419   -0.5132    0.2646 H         1 <0>         0.1261
     37 H7          3.8328   -1.3293    2.2593 H         1 <0>         0.1238
     38 H8          0.1573   -1.4082    4.4213 H         1 <0>         0.1226
     39 H9         -1.0323   -0.5842    2.4291 H         1 <0>         0.1255
     40 H10         2.1268   -2.5403    5.2775 H         1 <0>         0.0796
     41 H11         3.6607   -2.5078    4.3750 H         1 <0>         0.0802
     42 H12         3.0534    0.1263    5.1930 H         1 <0>         0.4021
     43 H13         5.0526    0.8113    6.8638 H         1 <0>         0.1159
     44 H14         2.6706    1.4210    7.0234 H         1 <0>         0.1154
     45 H15         2.4794    0.3724    8.4499 H         1 <0>         0.0948
     46 H16         4.3308    2.7915    8.2527 H         1 <0>         0.1319
     47 H17         2.7779    2.7419    9.1201 H         1 <0>         0.1353
     48 H18         6.1724    1.5384    9.0052 H         1 <0>         0.1275
     49 H19         6.0487    0.5162   10.4565 H         1 <0>         0.1412
     50 H20         4.4740   -0.9849    9.2649 H         1 <0>         0.0956
     51 H21         6.0214   -0.8590    8.3925 H         1 <0>         0.1179
     52 H22         5.4349    3.3336   10.3961 H         1 <0>         0.1332
     53 H23         3.8120    3.2935   11.1261 H         1 <0>         0.1357
     54 H24         3.6129    2.2399   13.5113 H         1 <0>         0.1822
     55 H25         7.7016    1.8638   10.4753 H         1 <0>         0.1334
     56 H26         9.9396    0.1772   13.6917 H         1 <0>         0.1462
     57 H27         7.9970    0.3558   15.1783 H         1 <0>         0.1378
     58 H28         4.7583    0.0949   15.6911 H         1 <0>         0.0834
     59 H29         6.0269    1.2054   16.2619 H         1 <0>         0.0921
     60 H30         4.3764    1.8092   15.9797 H         1 <0>         0.0945
     61 H31         3.6914    0.9753   10.4663 H         1 <0>         0.4212
@<TRIPOS>BOND
     1    1    2 1
     2    1   31 1
     3    1   32 1
     4    1   33 1
     5    2    3 1
     6    2   34 1
     7    2   35 1
     8    3    8 ar
     9    3    4 ar
    10    4    5 ar
    11    4   36 1
    12    5    6 ar
    13    5   37 1
    14    6    7 ar
    15    6    9 1
    16    7    8 ar
    17    7   38 1
    18    8   39 1
    19    9   10 1
    20    9   40 1
    21    9   41 1
    22   10   11 am
    23   10   42 1
    24   11   12 2
    25   11   13 1
    26   13   18 1
    27   13   14 1
    28   13   43 1
    29   14   15 1
    30   14   44 1
    31   14   45 1
    32   15   16 1
    33   15   46 1
    34   15   47 1
    35   16   17 1
    36   16   19 1
    37   16   61 1
    38   17   18 1
    39   17   48 1
    40   17   49 1
    41   18   50 1
    42   18   51 1
    43   19   20 1
    44   19   52 1
    45   19   53 1
    46   20   24 1
    47   20   21 2
    48   21   22 1
    49   21   54 1
    50   22   23 1
    51   22   30 1
    52   23   28 ar
    53   23   24 ar
    54   24   25 ar
    55   25   26 ar
    56   25   55 1
    57   26   27 ar
    58   26   29 1
    59   27   28 ar
    60   27   56 1
    61   28   57 1
    62   30   58 1
    63   30   59 1
    64   30   60 1
@<TRIPOS>MOLECULE
ZINC12583653
   54    57     0     0     0
SMALL
USER_CHARGES
N-[(3S)-1-[(2-fluorophenyl)methyl]-3-piperidyl]-2-(2-phenylthiazol-4-yl)acetamide
@<TRIPOS>ATOM
      1 C1         -6.2931    3.8857   11.6828 C.ar      1 <0>        -0.0957
      2 C2         -6.3343    5.2682   11.6483 C.ar      1 <0>        -0.1164
      3 C3         -6.3126    5.9320   10.4391 C.ar      1 <0>        -0.0904
      4 C4         -6.2486    5.2060    9.2491 C.ar      1 <0>        -0.0233
      5 C5         -6.2127    3.8116    9.2906 C.ar      1 <0>        -0.0679
      6 C6         -6.2296    3.1600   10.5066 C.ar      1 <0>        -0.1219
      7 C7         -6.2251    5.9110    7.9495 C.2       1 <0>         0.1668
      8 N1         -6.1722    5.4120    6.7225 N.2       1 <0>        -0.4803
      9 C8         -6.1537    6.1942    5.6690 C.2       1 <0>         0.0675
     10 C9         -6.2006    7.5438    5.8265 C.2       1 <0>        -0.2022
     11 S1         -6.2669    7.6659    7.6095 S.3       1 <0>         0.0272
     12 C10        -6.0869    5.5974    4.2869 C.3       1 <0>        -0.0667
     13 C11        -4.8905    4.6861    4.1905 C.2       1 <0>         0.5255
     14 O1         -4.1637    4.5361    5.1497 O.2       1 <0>        -0.5002
     15 N2         -4.6282    4.0379    3.0383 N.am      1 <0>        -0.7343
     16 C12        -3.4652    3.1520    2.9446 C.3       1 <0>         0.1322
     17 H1         -2.6492    3.5583    3.5424 H         1 <0>         0.1075
     18 C13        -3.8385    1.7614    3.4655 C.3       1 <0>        -0.1496
     19 C14        -2.6361    0.8264    3.3083 C.3       1 <0>        -0.1417
     20 C15        -2.2178    0.7842    1.8369 C.3       1 <0>        -0.0160
     21 C16        -3.0228    3.0424    1.4837 C.3       1 <0>        -0.0125
     22 C17        -1.3317    2.1161    0.0199 C.3       1 <0>         0.0520
     23 C18        -0.0167    1.3802    0.0096 C.ar      1 <0>        -0.1954
     24 C19         1.1711    2.0869    0.0021 C.ar      1 <0>        -0.0625
     25 C20         2.3773    1.4122   -0.0131 C.ar      1 <0>        -0.1198
     26 C21         2.3973    0.0297   -0.0207 C.ar      1 <0>        -0.0546
     27 C22         1.2112   -0.6790   -0.0132 C.ar      1 <0>        -0.1447
     28 C23         0.0021   -0.0041    0.0020 C.ar      1 <0>         0.1151
     29 F1         -1.1583   -0.6959    0.0098 F         1 <0>        -0.1301
     30 H2         -6.3110    3.3708   12.6320 H         1 <0>         0.1309
     31 H3         -6.3838    5.8290   12.5700 H         1 <0>         0.1339
     32 H4         -6.3455    7.0112   10.4135 H         1 <0>         0.1273
     33 H5         -6.1676    3.2438    8.3730 H         1 <0>         0.1324
     34 H6         -6.1974    2.0810   10.5403 H         1 <0>         0.1312
     35 H7         -6.1987    8.3256    5.0813 H         1 <0>         0.2001
     36 H8         -5.9958    6.3957    3.5504 H         1 <0>         0.1136
     37 H9         -6.9950    5.0264    4.0934 H         1 <0>         0.1140
     38 H10        -5.2096    4.1579    2.2711 H         1 <0>         0.4071
     39 H11        -4.1127    1.8283    4.5183 H         1 <0>         0.1002
     40 H12        -4.6809    1.3723    2.8936 H         1 <0>         0.0845
     41 H13        -1.8069    1.1954    3.9120 H         1 <0>         0.0891
     42 H14        -2.9091   -0.1760    3.6380 H         1 <0>         0.1165
     43 H15        -3.0427    0.4022    1.2356 H         1 <0>         0.1343
     44 H16        -1.3529    0.1305    1.7238 H         1 <0>         0.1330
     45 H17        -2.7427    4.0288    1.1140 H         1 <0>         0.1355
     46 H18        -3.8441    2.6497    0.8842 H         1 <0>         0.1369
     47 H19        -1.1788    3.1382   -0.3268 H         1 <0>         0.1425
     48 H20        -2.0364    1.6102   -0.6401 H         1 <0>         0.1404
     49 H21         1.1567    3.1668    0.0080 H         1 <0>         0.1445
     50 H22         3.3050    1.9653   -0.0193 H         1 <0>         0.1456
     51 H23         3.3404   -0.4965   -0.0329 H         1 <0>         0.1482
     52 H24         1.2270   -1.7589   -0.0195 H         1 <0>         0.1503
     53 N3         -1.8480    2.1486    1.4039 N.4       1 <0>        -0.3880
     54 H25        -1.1136    2.5077    2.0253 H         1 <0>         0.4283
@<TRIPOS>BOND
     1    1    6 ar
     2    1    2 ar
     3    1   30 1
     4    2    3 ar
     5    2   31 1
     6    3    4 ar
     7    3   32 1
     8    4    5 ar
     9    4    7 1
    10    5    6 ar
    11    5   33 1
    12    6   34 1
    13    7   11 1
    14    7    8 2
    15    8    9 1
    16    9   10 2
    17    9   12 1
    18   10   11 1
    19   10   35 1
    20   12   13 1
    21   12   36 1
    22   12   37 1
    23   13   14 2
    24   13   15 am
    25   15   16 1
    26   15   38 1
    27   16   17 1
    28   16   21 1
    29   16   18 1
    30   18   19 1
    31   18   39 1
    32   18   40 1
    33   19   20 1
    34   19   41 1
    35   19   42 1
    36   20   43 1
    37   20   44 1
    38   20   53 1
    39   21   45 1
    40   21   46 1
    41   21   53 1
    42   22   23 1
    43   22   47 1
    44   22   48 1
    45   22   53 1
    46   23   28 ar
    47   23   24 ar
    48   24   25 ar
    49   24   49 1
    50   25   26 ar
    51   25   50 1
    52   26   27 ar
    53   26   51 1
    54   27   28 ar
    55   27   52 1
    56   28   29 1
    57   53   54 1
@<TRIPOS>MOLECULE
ZINC29315919
   55    58     0     0     0
SMALL
USER_CHARGES
N-[(2S)-2-phenyl-2-pyrrolidin-1-yl-ethyl]-4-(thiazol-4-ylmethylsulfanyl)benzamide
@<TRIPOS>ATOM
      1 C1         11.0008   -1.7483    0.2477 C.ar      1 <0>        -0.0825
      2 C2          9.8874   -2.2296    0.9108 C.ar      1 <0>        -0.1077
      3 C3          8.6805   -1.5634    0.8089 C.ar      1 <0>        -0.1052
      4 C4          8.5872   -0.4153    0.0446 C.ar      1 <0>        -0.1469
      5 C5          9.6993    0.0633   -0.6223 C.ar      1 <0>        -0.0926
      6 C6         10.9073   -0.6005   -0.5169 C.ar      1 <0>        -0.1087
      7 C7          7.2714    0.3110   -0.0664 C.3       1 <0>         0.0721
      8 H1          7.2748    0.9510   -0.9611 H         1 <0>         0.1484
      9 C8          6.1305   -0.7067   -0.1253 C.3       1 <0>         0.1042
     10 N1          4.8463   -0.0018   -0.1129 N.am      1 <0>        -0.7603
     11 C9          3.6941   -0.6996   -0.1584 C.2       1 <0>         0.5745
     12 O1          3.7205   -1.9142   -0.2097 O.2       1 <0>        -0.5125
     13 C10         2.4013    0.0100   -0.1459 C.ar      1 <0>        -0.1595
     14 C11         1.2050   -0.7126   -0.1930 C.ar      1 <0>        -0.0289
     15 C12         0.0048   -0.0503   -0.1817 C.ar      1 <0>        -0.1055
     16 C13        -0.0239    1.3412   -0.1233 C.ar      1 <0>        -0.0505
     17 C14         1.1662    2.0637   -0.0763 C.ar      1 <0>        -0.1455
     18 C15         2.3694    1.4068   -0.0873 C.ar      1 <0>        -0.0630
     19 S1         -1.5683    2.1893   -0.1163 S.3       1 <0>        -0.0648
     20 C16        -1.1064    3.9416   -0.0335 C.3       1 <0>        -0.0414
     21 C17        -2.3522    4.7895   -0.0209 C.2       1 <0>         0.0551
     22 C18        -2.9022    5.2341   -1.1795 C.2       1 <0>        -0.1880
     23 S2         -4.3031    6.1470   -0.5486 S.3       1 <0>         0.0739
     24 C19        -4.0161    5.8595    1.1398 C.2       1 <0>         0.0766
     25 N2         -2.9305    5.1215    1.1143 N.2       1 <0>        -0.5015
     26 N3          7.0919    1.1807    1.1038 N.4       1 <0>        -0.4070
     27 C20         7.2742    0.4192    2.3659 C.3       1 <0>        -0.0245
     28 C21         7.5763    1.5259    3.4073 C.3       1 <0>        -0.1396
     29 C22         8.4425    2.5259    2.6075 C.3       1 <0>        -0.1387
     30 C23         8.1107    2.2526    1.1288 C.3       1 <0>        -0.0074
     31 H2         11.9437   -2.2688    0.3273 H         1 <0>         0.1377
     32 H3          9.9605   -3.1264    1.5082 H         1 <0>         0.1384
     33 H4          7.8106   -1.9397    1.3267 H         1 <0>         0.1337
     34 H5          9.6253    0.9578   -1.2230 H         1 <0>         0.1328
     35 H6         11.7772   -0.2242   -1.0347 H         1 <0>         0.1381
     36 H7          6.2148   -1.2990   -1.0484 H         1 <0>         0.1156
     37 H8          6.1902   -1.3754    0.7461 H         1 <0>         0.0969
     38 H9          4.8224    1.0970   -0.0665 H         1 <0>         0.4056
     39 H10         1.2267   -1.7914   -0.2378 H         1 <0>         0.1446
     40 H11        -0.9194   -0.6079   -0.2177 H         1 <0>         0.1411
     41 H12         1.1409    3.1425   -0.0312 H         1 <0>         0.1319
     42 H13         3.2917    1.9675   -0.0505 H         1 <0>         0.1201
     43 H14        -0.5284    4.1255    0.8842 H         1 <0>         0.1082
     44 H15        -0.4949    4.2014   -0.9102 H         1 <0>         0.1071
     45 H16        -2.5829    5.0783   -2.1994 H         1 <0>         0.2017
     46 H17        -4.5845    6.2008    1.9923 H         1 <0>         0.2290
     47 H18         6.3523   -0.1350    2.5961 H         1 <0>         0.1304
     48 H19         8.1082   -0.2886    2.2499 H         1 <0>         0.1436
     49 H20         6.6317    1.9686    3.7563 H         1 <0>         0.0971
     50 H21         8.1140    1.0887    4.2615 H         1 <0>         0.1149
     51 H22         8.1789    3.5535    2.8982 H         1 <0>         0.1066
     52 H23         9.5057    2.3449    2.8239 H         1 <0>         0.1038
     53 H24         9.0069    1.9194    0.5850 H         1 <0>         0.1322
     54 H25         7.7050    3.1553    0.6487 H         1 <0>         0.1320
     55 H26         6.0755    1.5925    1.0177 H         1 <0>         0.4343
@<TRIPOS>BOND
     1    1    6 ar
     2    1    2 ar
     3    1   31 1
     4    2    3 ar
     5    2   32 1
     6    3    4 ar
     7    3   33 1
     8    4    5 ar
     9    4    7 1
    10    5    6 ar
    11    5   34 1
    12    6   35 1
    13    7    8 1
    14    7    9 1
    15    7   26 1
    16    9   10 1
    17    9   36 1
    18    9   37 1
    19   10   11 am
    20   10   38 1
    21   11   12 2
    22   11   13 1
    23   13   18 ar
    24   13   14 ar
    25   14   15 ar
    26   14   39 1
    27   15   16 ar
    28   15   40 1
    29   16   17 ar
    30   16   19 1
    31   17   18 ar
    32   17   41 1
    33   18   42 1
    34   19   20 1
    35   20   21 1
    36   20   43 1
    37   20   44 1
    38   21   25 1
    39   21   22 2
    40   22   23 1
    41   22   45 1
    42   23   24 1
    43   24   25 2
    44   24   46 1
    45   26   30 1
    46   26   27 1
    47   26   55 1
    48   27   28 1
    49   27   47 1
    50   27   48 1
    51   28   29 1
    52   28   49 1
    53   28   50 1
    54   29   30 1
    55   29   51 1
    56   29   52 1
    57   30   53 1
    58   30   54 1
@<TRIPOS>MOLECULE
ZINC40416124
   63    66     0     0     0
SMALL
USER_CHARGES

@<TRIPOS>ATOM
      1 C1          6.5851    1.7356   -2.0428 C.ar      1 <0>        -0.1093
      2 C2          6.6414    1.5880   -0.6695 C.ar      1 <0>        -0.1159
      3 C3          5.7113    0.7977   -0.0206 C.ar      1 <0>        -0.1101
      4 C4          4.7246    0.1553   -0.7449 C.ar      1 <0>        -0.0937
      5 C5          4.6677    0.3036   -2.1181 C.ar      1 <0>        -0.0941
      6 C6          5.5987    1.0928   -2.7672 C.ar      1 <0>        -0.1215
      7 C7          3.7112   -0.7071   -0.0376 C.3       1 <0>         0.1792
      8 C8          2.3933    0.0205    0.0316 C.ar      1 <0>        -0.0944
      9 C9          1.5998    0.1220   -1.0958 C.ar      1 <0>        -0.0945
     10 C10         0.3909    0.7894   -1.0323 C.ar      1 <0>        -0.1212
     11 C11        -0.0247    1.3549    0.1587 C.ar      1 <0>        -0.1090
     12 C12         0.7683    1.2526    1.2863 C.ar      1 <0>        -0.1157
     13 C13         1.9752    0.5815    1.2239 C.ar      1 <0>        -0.1102
     14 N1          3.5379   -1.9650   -0.7763 N.3       1 <0>        -0.5295
     15 C14         2.5168   -2.8114   -0.1429 C.3       1 <0>         0.0246
     16 C15         2.3244   -4.0818   -0.9740 C.3       1 <0>         0.0006
     17 N2          3.5990   -4.8063   -1.0634 N.4       1 <0>        -0.3869
     18 C16         4.6018   -3.9574   -1.7201 C.3       1 <0>        -0.0069
     19 C17         4.8131   -2.6860   -0.8952 C.3       1 <0>         0.0254
     20 C18         3.4097   -6.0350   -1.8461 C.3       1 <0>         0.0082
     21 C19         4.7037   -6.8513   -1.8348 C.3       1 <0>        -0.1733
     22 C20         4.5094   -8.1117   -2.6377 C.2       1 <0>         0.5200
     23 O1          3.4412   -8.3351   -3.1669 O.2       1 <0>        -0.5295
     24 N3          5.5228   -8.9907   -2.7678 N.am      1 <0>        -0.7154
     25 C21         5.3340  -10.2160   -3.5483 C.3       1 <0>         0.1638
     26 C22         6.6085  -11.0201   -3.5372 C.ar      1 <0>        -0.1563
     27 C23         7.4685  -10.9676   -4.6180 C.ar      1 <0>        -0.0706
     28 C24         8.6376  -11.7049   -4.6081 C.ar      1 <0>        -0.1284
     29 C25         8.9481  -12.4959   -3.5173 C.ar      1 <0>        -0.0747
     30 C26         8.0901  -12.5496   -2.4356 C.ar      1 <0>        -0.1538
     31 C27         6.9211  -11.8072   -2.4421 C.ar      1 <0>         0.1146
     32 F1          6.0838  -11.8554   -1.3831 F         1 <0>        -0.1348
     33 H1          7.3091    2.3567   -2.5493 H         1 <0>         0.1254
     34 H2          7.4123    2.0900   -0.1036 H         1 <0>         0.1261
     35 H3          5.7557    0.6819    1.0523 H         1 <0>         0.1203
     36 H4          3.8973   -0.1989   -2.6841 H         1 <0>         0.1270
     37 H5          5.5546    1.2083   -3.8401 H         1 <0>         0.1247
     38 H6          4.0600   -0.9238    0.9721 H         1 <0>         0.0666
     39 H7          1.9245   -0.3198   -2.0262 H         1 <0>         0.1270
     40 H8         -0.2287    0.8694   -1.9133 H         1 <0>         0.1249
     41 H9         -0.9689    1.8770    0.2081 H         1 <0>         0.1256
     42 H10         0.4438    1.6947    2.2167 H         1 <0>         0.1262
     43 H11         2.5931    0.4983    2.1057 H         1 <0>         0.1203
     44 H12         2.8400   -3.0802    0.8628 H         1 <0>         0.0618
     45 H13         1.5747   -2.2660   -0.0889 H         1 <0>         0.1280
     46 H14         1.5777   -4.7176   -0.4982 H         1 <0>         0.1376
     47 H15         1.9881   -3.8134   -1.9754 H         1 <0>         0.1398
     48 H16         5.5434   -4.5009   -1.7976 H         1 <0>         0.1345
     49 H17         4.2538   -3.6896   -2.7178 H         1 <0>         0.1402
     50 H18         5.5462   -2.0490   -1.3902 H         1 <0>         0.1270
     51 H19         5.1741   -2.9527    0.0980 H         1 <0>         0.0615
     52 H20         2.6044   -6.6244   -1.4078 H         1 <0>         0.1410
     53 H21         3.1527   -5.7755   -2.8731 H         1 <0>         0.1407
     54 H22         5.5090   -6.2618   -2.2730 H         1 <0>         0.1171
     55 H23         4.9607   -7.1107   -0.8078 H         1 <0>         0.1174
     56 H24         6.3771   -8.8121   -2.3446 H         1 <0>         0.4055
     57 H25         4.5286  -10.8055   -3.1101 H         1 <0>         0.0857
     58 H26         5.0770   -9.9566   -4.5753 H         1 <0>         0.0890
     59 H27         7.2268  -10.3504   -5.4707 H         1 <0>         0.1361
     60 H28         9.3088  -11.6635   -5.4532 H         1 <0>         0.1364
     61 H29         9.8615  -13.0721   -3.5110 H         1 <0>         0.1392
     62 H30         8.3327  -13.1677   -1.5838 H         1 <0>         0.1409
     63 H31         3.9160   -5.0446   -0.1356 H         1 <0>         0.4199
@<TRIPOS>BOND
     1    1    6 ar
     2    1    2 ar
     3    1   33 1
     4    2    3 ar
     5    2   34 1
     6    3    4 ar
     7    3   35 1
     8    4    5 ar
     9    4    7 1
    10    5    6 ar
    11    5   36 1
    12    6   37 1
    13    7    8 1
    14    7   14 1
    15    7   38 1
    16    8   13 ar
    17    8    9 ar
    18    9   10 ar
    19    9   39 1
    20   10   11 ar
    21   10   40 1
    22   11   12 ar
    23   11   41 1
    24   12   13 ar
    25   12   42 1
    26   13   43 1
    27   14   19 1
    28   14   15 1
    29   15   16 1
    30   15   44 1
    31   15   45 1
    32   16   17 1
    33   16   46 1
    34   16   47 1
    35   17   18 1
    36   17   20 1
    37   17   63 1
    38   18   19 1
    39   18   48 1
    40   18   49 1
    41   19   50 1
    42   19   51 1
    43   20   21 1
    44   20   52 1
    45   20   53 1
    46   21   22 1
    47   21   54 1
    48   21   55 1
    49   22   23 2
    50   22   24 am
    51   24   25 1
    52   24   56 1
    53   25   26 1
    54   25   57 1
    55   25   58 1
    56   26   31 ar
    57   26   27 ar
    58   27   28 ar
    59   27   59 1
    60   28   29 ar
    61   28   60 1
    62   29   30 ar
    63   29   61 1
    64   30   31 ar
    65   30   62 1
    66   31   32 1
@<TRIPOS>MOLECULE
ZINC58965871
   54    55     0     0     0
SMALL
USER_CHARGES

@<TRIPOS>ATOM
      1 C1         -1.1206    1.4917    0.6200 C.3       1 <0>        -0.1524
      2 C2         -1.1057   -0.0382    0.6197 C.3       1 <0>        -0.1110
      3 H1         -2.1110   -0.4121    0.8138 H         1 <0>         0.0936
      4 C3         -0.6262   -0.5447   -0.7437 C.3       1 <0>        -0.1355
      5 C4         -0.5401   -2.0733   -0.7079 C.3       1 <0>        -0.1461
      6 C5          0.3907   -2.4998    0.4293 C.3       1 <0>        -0.0122
      7 N1         -0.1359   -2.0079    1.7080 N.4       1 <0>        -0.3830
      8 C6         -0.1548   -0.5402    1.7084 C.3       1 <0>        -0.0050
      9 C7          0.7181   -2.4853    2.8038 C.3       1 <0>        -0.0090
     10 C8          0.6323   -4.0105    2.8898 C.3       1 <0>        -0.1469
     11 C9          1.5218   -4.5078    4.0310 C.3       1 <0>        -0.1297
     12 C10         1.4360   -6.0330    4.1170 C.3       1 <0>         0.1202
     13 N2          2.2877   -6.5092    5.2097 N.am      1 <0>        -0.7321
     14 C11         2.3701   -7.8282    5.4742 C.2       1 <0>         0.5205
     15 O1          1.7393   -8.6209    4.8075 O.2       1 <0>        -0.4994
     16 C12         3.2462   -8.3180    6.5983 C.3       1 <0>         0.0639
     17 H2          4.2612   -7.9471    6.4559 H         1 <0>         0.1031
     18 C13         2.6985   -7.8060    7.9320 C.3       1 <0>        -0.1789
     19 O2          3.2578   -9.7469    6.6052 O.3       1 <0>        -0.2681
     20 C14         4.3391  -10.3526    7.1637 C.ar      1 <0>         0.1580
     21 C15         5.3131   -9.5919    7.7934 C.ar      1 <0>        -0.1962
     22 C16         6.4110  -10.2092    8.3609 C.ar      1 <0>        -0.0524
     23 C17         6.5401  -11.5857    8.3012 C.ar      1 <0>        -0.0664
     24 C18         5.5701  -12.3467    7.6737 C.ar      1 <0>        -0.0411
     25 C19         4.4670  -11.7335    7.1096 C.ar      1 <0>        -0.1134
     26 Br1         3.1376  -12.7745    6.2583 Br        1 <0>        -0.0132
     27 Cl1         7.9214  -12.3584    9.0142 Cl        1 <0>        -0.0502
     28 H3         -0.1151    1.8649    0.4258 H         1 <0>         0.0673
     29 H4         -1.7969    1.8486   -0.1568 H         1 <0>         0.0779
     30 H5         -1.4605    1.8516    1.5911 H         1 <0>         0.0685
     31 H6         -1.3319   -0.2374   -1.5155 H         1 <0>         0.0946
     32 H7          0.3577   -0.1292   -0.9614 H         1 <0>         0.0822
     33 H8         -1.5334   -2.4900   -0.5410 H         1 <0>         0.0878
     34 H9         -0.1465   -2.4380   -1.6567 H         1 <0>         0.1129
     35 H10         0.4544   -3.5876    0.4575 H         1 <0>         0.1318
     36 H11         1.3836   -2.0828    0.2612 H         1 <0>         0.1284
     37 H12         0.8499   -0.1650    1.5139 H         1 <0>         0.1284
     38 H13        -0.4939   -0.1812    2.6801 H         1 <0>         0.1300
     39 H14         1.7501   -2.1895    2.6154 H         1 <0>         0.1303
     40 H15         0.3808   -2.0489    3.7439 H         1 <0>         0.1320
     41 H16        -0.3997   -4.3063    3.0781 H         1 <0>         0.0923
     42 H17         0.9696   -4.4470    1.9496 H         1 <0>         0.0919
     43 H18         2.5538   -4.2120    3.8427 H         1 <0>         0.0829
     44 H19         1.1845   -4.0714    4.9711 H         1 <0>         0.0834
     45 H20         0.4040   -6.3288    4.3053 H         1 <0>         0.0742
     46 H21         1.7733   -6.4694    3.1768 H         1 <0>         0.0735
     47 H22         2.7922   -5.8752    5.7430 H         1 <0>         0.4032
     48 H23         2.6897   -6.7160    7.9267 H         1 <0>         0.0797
     49 H24         1.6835   -8.1768    8.0743 H         1 <0>         0.0797
     50 H25         3.3322   -8.1602    8.7450 H         1 <0>         0.0819
     51 H26         5.2134   -8.5175    7.8398 H         1 <0>         0.1462
     52 H27         7.1694   -9.6169    8.8512 H         1 <0>         0.1460
     53 H28         5.6726  -13.4209    7.6281 H         1 <0>         0.1530
     54 H29        -1.0742   -2.3547    1.8400 H         1 <0>         0.4227
@<TRIPOS>BOND
     1    1    2 1
     2    1   28 1
     3    1   29 1
     4    1   30 1
     5    2    3 1
     6    2    8 1
     7    2    4 1
     8    4    5 1
     9    4   31 1
    10    4   32 1
    11    5    6 1
    12    5   33 1
    13    5   34 1
    14    6    7 1
    15    6   35 1
    16    6   36 1
    17    7    8 1
    18    7    9 1
    19    7   54 1
    20    8   37 1
    21    8   38 1
    22    9   10 1
    23    9   39 1
    24    9   40 1
    25   10   11 1
    26   10   41 1
    27   10   42 1
    28   11   12 1
    29   11   43 1
    30   11   44 1
    31   12   13 1
    32   12   45 1
    33   12   46 1
    34   13   14 am
    35   13   47 1
    36   14   15 2
    37   14   16 1
    38   16   17 1
    39   16   18 1
    40   16   19 1
    41   18   48 1
    42   18   49 1
    43   18   50 1
    44   19   20 1
    45   20   25 ar
    46   20   21 ar
    47   21   22 ar
    48   21   51 1
    49   22   23 ar
    50   22   52 1
    51   23   24 ar
    52   23   27 1
    53   24   25 ar
    54   24   53 1
    55   25   26 1
@<TRIPOS>MOLECULE
ZINC64701992
   55    58     0     0     0
SMALL
USER_CHARGES

@<TRIPOS>ATOM
      1 C1         -0.0178    1.4608    0.0101 C.3       1 <0>         0.0880
      2 N1          0.0021   -0.0041    0.0020 N.pl3     1 <0>        -0.6288
      3 C2          1.2806   -0.7192   -0.0140 C.3       1 <0>         0.0845
      4 C3         -1.1979   -0.7188    0.0096 C.ar      1 <0>         0.2356
      5 C4         -1.1808   -2.1078    0.0078 C.ar      1 <0>        -0.1922
      6 C5         -2.3691   -2.8115    0.0159 C.ar      1 <0>        -0.0430
      7 C6         -3.5751   -2.1348    0.0252 C.ar      1 <0>        -0.1716
      8 C7         -3.5957   -0.7521    0.0271 C.ar      1 <0>        -0.0702
      9 C8         -2.4110   -0.0423    0.0249 C.ar      1 <0>        -0.1907
     10 C9         -4.8698   -2.9060    0.0330 C.3       1 <0>        -0.0058
     11 H1         -4.6561   -3.9749    0.0298 H         1 <0>         0.1224
     12 C10        -5.6857   -2.5454   -1.2101 C.3       1 <0>         0.1256
     13 N2         -6.8876   -3.3813   -1.2648 N.am      1 <0>        -0.7480
     14 C11        -7.7620   -3.2385   -2.2804 C.2       1 <0>         0.5147
     15 O1         -7.5539   -2.4181   -3.1490 O.2       1 <0>        -0.5101
     16 C12        -8.9983   -4.0984   -2.3367 C.3       1 <0>        -0.0819
     17 C13        -9.8019   -3.7432   -3.5611 C.2       1 <0>        -0.1156
     18 C14       -10.7692   -2.7574   -3.5036 C.2       1 <0>        -0.1508
     19 C15       -11.4742   -2.4623   -4.6231 C.2       1 <0>        -0.1697
     20 S1        -10.7726   -3.5954   -5.8109 S.3       1 <0>         0.0567
     21 C16        -9.5832   -4.3818   -4.7365 C.2       1 <0>        -0.1613
     22 C17        -5.6564   -2.5547    1.2694 C.2       1 <0>         0.0839
     23 C18        -6.0509   -3.3991    2.2496 C.ar      1 <0>        -0.1747
     24 C19        -5.8734   -4.8424    2.4496 C.ar      1 <0>        -0.0114
     25 C20        -6.3954   -5.4204    3.5553 C.ar      1 <0>        -0.1514
     26 C21        -7.1003   -4.6777    4.5124 C.ar      1 <0>         0.0531
     27 C22        -7.3043   -3.3482    4.3983 C.ar      1 <0>        -0.2088
     28 C23        -6.7986   -2.6372    3.2751 C.ar      1 <0>         0.3282
     29 N3         -6.8639   -1.3710    2.9420 N.pl3     1 <0>        -0.5849
     30 C24        -6.1589   -1.1853    1.6688 C.3       1 <0>         0.0529
     31 H2          1.0048    1.8381    0.0023 H         1 <0>         0.0805
     32 H3         -0.5450    1.8219   -0.8730 H         1 <0>         0.0599
     33 H4         -0.5280    1.8123    0.9069 H         1 <0>         0.0577
     34 H5          1.6074   -0.9021    1.0096 H         1 <0>         0.0553
     35 H6          1.1583   -1.6705   -0.5318 H         1 <0>         0.0724
     36 H7          2.0272   -0.1171   -0.5318 H         1 <0>         0.0746
     37 H8         -0.2393   -2.6369   -0.0002 H         1 <0>         0.1316
     38 H9         -2.3566   -3.8914    0.0144 H         1 <0>         0.1280
     39 H10        -4.5393   -0.2268    0.0344 H         1 <0>         0.1179
     40 H11        -2.4278    1.0375    0.0308 H         1 <0>         0.1286
     41 H12        -5.9751   -1.4956   -1.1628 H         1 <0>         0.0778
     42 H13        -5.0833   -2.7164   -2.1023 H         1 <0>         0.0982
     43 H14        -7.0540   -4.0375   -0.5701 H         1 <0>         0.3976
     44 H15        -8.7090   -5.1482   -2.3840 H         1 <0>         0.1056
     45 H16        -9.6008   -3.9274   -1.4445 H         1 <0>         0.1002
     46 H17       -10.9605   -2.2304   -2.5806 H         1 <0>         0.1281
     47 H18       -12.2575   -1.7315   -4.7606 H         1 <0>         0.1870
     48 H19        -8.8742   -5.1641   -4.9639 H         1 <0>         0.1841
     49 H20        -5.3344   -5.4340    1.7245 H         1 <0>         0.1604
     50 H21        -6.2661   -6.4822    3.7044 H         1 <0>         0.1577
     51 H22        -7.4968   -5.1901    5.3764 H         1 <0>         0.1602
     52 H23        -7.8548   -2.8216    5.1638 H         1 <0>         0.1597
     53 H24        -5.3208   -0.5003    1.7975 H         1 <0>         0.1756
     54 H25        -6.8455   -0.8021    0.9140 H         1 <0>         0.1718
     55 H26        -7.3018   -0.6729    3.4537 H         1 <0>         0.4552
@<TRIPOS>BOND
     1    1    2 1
     2    1   31 1
     3    1   32 1
     4    1   33 1
     5    2    3 1
     6    2    4 1
     7    3   34 1
     8    3   35 1
     9    3   36 1
    10    4    9 ar
    11    4    5 ar
    12    5    6 ar
    13    5   37 1
    14    6    7 ar
    15    6   38 1
    16    7    8 ar
    17    7   10 1
    18    8    9 ar
    19    8   39 1
    20    9   40 1
    21   10   11 1
    22   10   12 1
    23   10   22 1
    24   12   13 1
    25   12   41 1
    26   12   42 1
    27   13   14 am
    28   13   43 1
    29   14   15 2
    30   14   16 1
    31   16   17 1
    32   16   44 1
    33   16   45 1
    34   17   21 2
    35   17   18 1
    36   18   19 2
    37   18   46 1
    38   19   20 1
    39   19   47 1
    40   20   21 1
    41   21   48 1
    42   22   30 1
    43   22   23 2
    44   23   28 ar
    45   23   24 ar
    46   24   25 ar
    47   24   49 1
    48   25   26 ar
    49   25   50 1
    50   26   27 ar
    51   26   51 1
    52   27   28 ar
    53   27   52 1
    54   28   29 2
    55   29   30 1
    56   29   55 1
    57   30   53 1
    58   30   54 1
@<TRIPOS>MOLECULE
ZINC05791085
   38    40     0     0     0
SMALL
USER_CHARGES
5-(2-bromophenyl)-4-[(4-ethoxyphenyl)methyleneamino]-1,2,4-triazole-3-thiol
@<TRIPOS>ATOM
      1 C1         11.5255    0.4828   -0.9498 C.3       1 <0>        -0.1539
      2 C2         10.1002   -0.0690   -1.0200 C.3       1 <0>         0.0500
      3 O1          9.6399   -0.3689    0.2992 O.3       1 <0>        -0.3149
      4 C3          8.3834   -0.8714    0.4145 C.ar      1 <0>         0.1480
      5 C4          7.8751   -1.1843    1.6689 C.ar      1 <0>        -0.1589
      6 C5          6.6010   -1.6943    1.7907 C.ar      1 <0>        -0.0400
      7 C6          5.8196   -1.8967    0.6497 C.ar      1 <0>        -0.0971
      8 C7          6.3373   -1.5860   -0.6107 C.ar      1 <0>        -0.0251
      9 C8          7.6105   -1.0714   -0.7224 C.ar      1 <0>        -0.2166
     10 C9          4.4560   -2.4420    0.7749 C.2       1 <0>         0.1850
     11 N1          3.6954   -2.5346   -0.2728 N.2       1 <0>        -0.2394
     12 N2          2.3654   -2.9540   -0.1380 N.pl3     1 <0>        -0.3572
     13 C10         1.2492   -2.1564   -0.0109 C.2       1 <0>         0.1413
     14 N3          0.2122   -2.9575    0.0822 N.2       1 <0>        -0.2434
     15 N4          0.5963   -4.1825    0.0282 N.2       1 <0>        -0.3305
     16 C11         1.9032   -4.2418   -0.1029 C.2       1 <0>         0.3785
     17 S1          2.8770   -5.7056   -0.2197 S.3       1 <0>        -0.7947
     18 C12         1.2227   -0.6791    0.0102 C.ar      1 <0>         0.0428
     19 C13         1.9376    0.0488   -0.9428 C.ar      1 <0>        -0.0922
     20 C14         1.9091    1.4276   -0.9172 C.ar      1 <0>        -0.1058
     21 C15         1.1740    2.0901    0.0502 C.ar      1 <0>        -0.1163
     22 C16         0.4632    1.3760    0.9978 C.ar      1 <0>        -0.0946
     23 C17         0.4828   -0.0045    0.9840 C.ar      1 <0>        -0.0678
     24 Br1        -0.4900   -0.9794    2.2797 Br        1 <0>        -0.0304
     25 H1         11.8797    0.7136   -1.9653 H         1 <0>         0.0788
     26 H2         12.1871   -0.2676   -0.4924 H         1 <0>         0.0668
     27 H3         11.5344    1.3991   -0.3412 H         1 <0>         0.0663
     28 H4          9.4386    0.6814   -1.4774 H         1 <0>         0.0644
     29 H5         10.0913   -0.9853   -1.6286 H         1 <0>         0.0652
     30 H6          8.4797   -1.0278    2.5500 H         1 <0>         0.1356
     31 H7          6.2068   -1.9376    2.7663 H         1 <0>         0.1374
     32 H8          5.7386   -1.7449   -1.4954 H         1 <0>         0.1387
     33 H9          8.0097   -0.8268   -1.6956 H         1 <0>         0.1314
     34 H10         4.0829   -2.7705    1.7562 H         1 <0>         0.1223
     35 H11         2.5115   -0.4667   -1.6987 H         1 <0>         0.1332
     36 H12         2.4654    1.9915   -1.6513 H         1 <0>         0.1293
     37 H13         1.1556    3.1699    0.0656 H         1 <0>         0.1300
     38 H14        -0.1081    1.8993    1.7502 H         1 <0>         0.1337
@<TRIPOS>BOND
     1    1    2 1
     2    1   25 1
     3    1   26 1
     4    1   27 1
     5    2    3 1
     6    2   28 1
     7    2   29 1
     8    3    4 1
     9    4    9 ar
    10    4    5 ar
    11    5    6 ar
    12    5   30 1
    13    6    7 ar
    14    6   31 1
    15    7    8 ar
    16    7   10 1
    17    8    9 ar
    18    8   32 1
    19    9   33 1
    20   10   11 2
    21   10   34 1
    22   11   12 1
    23   12   16 1
    24   12   13 1
    25   13   14 2
    26   13   18 1
    27   14   15 1
    28   15   16 2
    29   16   17 1
    30   18   23 ar
    31   18   19 ar
    32   19   20 ar
    33   19   35 1
    34   20   21 ar
    35   20   36 1
    36   21   22 ar
    37   21   37 1
    38   22   23 ar
    39   22   38 1
    40   23   24 1
@<TRIPOS>MOLECULE
ZINC37335940
   30    32     0     0     0
SMALL
USER_CHARGES

@<TRIPOS>ATOM
      1 C1         -0.0184    1.5028    0.0103 C.3       1 <0>        -0.1107
      2 C2          0.0021   -0.0041    0.0020 C.ar      1 <0>        -0.0699
      3 C3          0.0057   -0.6873   -1.2001 C.ar      1 <0>        -0.0750
      4 C4          0.0244   -2.0693   -1.2112 C.ar      1 <0>        -0.0723
      5 C5          0.0396   -2.7717   -0.0132 C.ar      1 <0>         0.2032
      6 C6          0.0359   -2.0823    1.1925 C.ar      1 <0>        -0.0652
      7 C7          0.0229   -0.7002    1.1965 C.ar      1 <0>        -0.0745
      8 Br1         0.0565   -3.0335    2.8267 Br        1 <0>        -0.0185
      9 N1          0.0582   -4.1739   -0.0209 N.pl3     1 <0>        -0.4570
     10 C8         -1.0281   -5.0213   -0.0257 C.2       1 <0>         0.1605
     11 N2         -0.5594   -6.2477   -0.0329 N.2       1 <0>        -0.2583
     12 N3          0.7255   -6.2276   -0.0329 N.2       1 <0>        -0.3367
     13 C9          1.1586   -4.9864   -0.0313 C.2       1 <0>         0.4071
     14 S1          2.8421   -4.4666   -0.0370 S.3       1 <0>        -0.7756
     15 C10        -2.4520   -4.6248   -0.0225 C.ar      1 <0>        -0.0267
     16 C11        -3.4496   -5.5561    0.2898 C.ar      1 <0>        -0.0494
     17 C12        -4.7672   -5.1341    0.2792 C.ar      1 <0>        -0.1671
     18 C13        -5.0542   -3.8181   -0.0367 C.ar      1 <0>         0.0847
     19 N4         -4.0934   -2.9622   -0.3270 N.ar      1 <0>        -0.4755
     20 C14        -2.8243   -3.3143   -0.3251 C.ar      1 <0>         0.0965
     21 Br2         0.0287   -3.0026   -2.8559 Br        1 <0>        -0.0168
     22 H1          1.0042    1.8801    0.0026 H         1 <0>         0.0779
     23 H2         -0.5455    1.8639   -0.8728 H         1 <0>         0.0728
     24 H3         -0.5286    1.8543    0.9071 H         1 <0>         0.0722
     25 H4         -0.0065   -0.1404   -2.1313 H         1 <0>         0.1453
     26 H5          0.0248   -0.1635    2.1337 H         1 <0>         0.1442
     27 H6         -3.1972   -6.5778    0.5325 H         1 <0>         0.1451
     28 H7         -5.5633   -5.8249    0.5146 H         1 <0>         0.1374
     29 H8         -6.0819   -3.4861   -0.0461 H         1 <0>         0.1544
     30 H9         -2.0656   -2.5837   -0.5640 H         1 <0>         0.1479
@<TRIPOS>BOND
     1    1    2 1
     2    1   22 1
     3    1   23 1
     4    1   24 1
     5    2    7 ar
     6    2    3 ar
     7    3    4 ar
     8    3   25 1
     9    4    5 ar
    10    4   21 1
    11    5    6 ar
    12    5    9 1
    13    6    7 ar
    14    6    8 1
    15    7   26 1
    16    9   13 1
    17    9   10 1
    18   10   15 1
    19   10   11 2
    20   11   12 1
    21   12   13 2
    22   13   14 1
    23   15   20 ar
    24   15   16 ar
    25   16   17 ar
    26   16   27 1
    27   17   18 ar
    28   17   28 1
    29   18   19 ar
    30   18   29 1
    31   19   20 ar
    32   20   30 1
@<TRIPOS>MOLECULE
ZINC40692729
   34    35     0     0     0
SMALL
USER_CHARGES

@<TRIPOS>ATOM
      1 C1         -0.0187    1.5258    0.0104 C.3       1 <0>        -0.1338
      2 C2          0.0021   -0.0041    0.0020 C.3       1 <0>         0.0062
      3 C3          0.7421   -0.5109    1.2415 C.3       1 <0>        -0.1337
      4 C4         -1.4333   -0.5336    0.0129 C.3       1 <0>        -0.1362
      5 C5          0.7074   -0.4901   -1.2379 C.2       1 <0>         0.1308
      6 C6          2.0914   -0.4720   -1.4557 C.2       1 <0>        -0.3887
      7 C7          2.3302   -0.9938   -2.6879 C.2       1 <0>         0.3949
      8 O1          1.1462   -1.3287   -3.2282 O.3       1 <0>        -0.1691
      9 N1          0.1349   -1.0055   -2.2912 N.2       1 <0>        -0.3792
     10 N2          3.5696   -1.1515   -3.2797 N.2       1 <0>        -1.0136
     11 S1          3.6859   -1.8081   -4.7955 S.o2      1 <0>         2.5989
     12 O2          3.2605   -3.1595   -4.6864 O.2       1 <0>        -1.0111
     13 O3          3.0725   -0.8859   -5.6857 O.2       1 <0>        -0.9906
     14 C8          5.3967   -1.8510   -5.2148 C.ar      1 <0>        -0.5959
     15 C9          6.0335   -3.0643   -5.3970 C.ar      1 <0>         0.0052
     16 C10         7.3764   -3.0979   -5.7261 C.ar      1 <0>        -0.1049
     17 C11         8.0824   -1.9172   -5.8729 C.ar      1 <0>        -0.0469
     18 C12         7.4458   -0.7043   -5.6913 C.ar      1 <0>        -0.1122
     19 C13         6.1012   -0.6706   -5.3672 C.ar      1 <0>         0.0166
     20 Br1         5.2282    0.9894   -5.1257 Br        1 <0>         0.0004
     21 Br2         8.2476   -4.7577   -5.9747 Br        1 <0>        -0.0422
     22 H1          1.0039    1.9031    0.0027 H         1 <0>         0.0620
     23 H2         -0.5459    1.8868   -0.8726 H         1 <0>         0.0555
     24 H3         -0.5289    1.8773    0.9072 H         1 <0>         0.0579
     25 H4          0.2319   -0.1594    2.1383 H         1 <0>         0.0561
     26 H5          0.7568   -1.6008    1.2356 H         1 <0>         0.0564
     27 H6          1.7647   -0.1336    1.2338 H         1 <0>         0.0635
     28 H7         -1.9605   -0.1726   -0.8702 H         1 <0>         0.0601
     29 H8         -1.4185   -1.6235    0.0069 H         1 <0>         0.0564
     30 H9         -1.9435   -0.1821    0.9097 H         1 <0>         0.0537
     31 H10         2.8376   -0.1069   -0.7656 H         1 <0>         0.1342
     32 H11         5.4824   -3.9859   -5.2820 H         1 <0>         0.1570
     33 H12         9.1312   -1.9435   -6.1292 H         1 <0>         0.1450
     34 H13         7.9970    0.2173   -5.8055 H         1 <0>         0.1476
@<TRIPOS>BOND
     1    1    2 1
     2    1   22 1
     3    1   23 1
     4    1   24 1
     5    2    3 1
     6    2    4 1
     7    2    5 1
     8    3   25 1
     9    3   26 1
    10    3   27 1
    11    4   28 1
    12    4   29 1
    13    4   30 1
    14    5    9 2
    15    5    6 1
    16    6    7 2
    17    6   31 1
    18    7    8 1
    19    7   10 1
    20    8    9 1
    21   10   11 1
    22   11   12 2
    23   11   13 2
    24   11   14 1
    25   14   19 ar
    26   14   15 ar
    27   15   16 ar
    28   15   32 1
    29   16   17 ar
    30   16   21 1
    31   17   18 ar
    32   17   33 1
    33   18   19 ar
    34   18   34 1
    35   19   20 1
@<TRIPOS>MOLECULE
ZINC59220210
   44    47     0     0     0
SMALL
USER_CHARGES

@<TRIPOS>ATOM
      1 C1          0.2518    1.1048    0.4278 C.3       1 <0>         0.0757
      2 N1          0.5977   -0.2892    0.1391 N.am      1 <0>        -0.5468
      3 C2          0.4276   -0.7723   -1.0793 C.2       1 <0>         0.5663
      4 O1         -0.0150   -0.0721   -1.9722 O.2       1 <0>        -0.5051
      5 C3          0.7755   -2.1341   -1.3227 C.2       1 <0>        -0.2803
      6 C4          0.6936   -2.8515   -2.4765 C.2       1 <0>         0.1615
      7 C5          1.1474   -4.2424   -2.5071 C.2       1 <0>        -0.2271
      8 C6          1.3730   -5.0533   -1.4305 C.2       1 <0>         0.1529
      9 N2          1.7859   -6.2749   -1.8567 N.pl3     1 <0>        -0.4164
     10 C7          1.8461   -6.3087   -3.2348 C.ar      1 <0>         0.1059
     11 C8          1.4457   -5.0480   -3.7064 C.ar      1 <0>        -0.0727
     12 C9          1.4043   -4.7952   -5.0748 C.ar      1 <0>        -0.0852
     13 C10         1.7545   -5.7889   -5.9631 C.ar      1 <0>        -0.1388
     14 C11         2.1463   -7.0360   -5.4992 C.ar      1 <0>        -0.1117
     15 C12         2.2007   -7.2969   -4.1471 C.ar      1 <0>        -0.1032
     16 C13         2.1209   -7.3979   -0.9776 C.3       1 <0>         0.0205
     17 C14         3.6069   -7.4141   -0.7274 C.2       1 <0>         0.4829
     18 O2          4.3200   -6.5663   -1.2364 O.co2     1 <0>        -0.6667
     19 O3          4.0959   -8.2752   -0.0161 O.co2     1 <0>        -0.6844
     20 S1          1.3488   -2.6471    0.2902 S.3       1 <0>        -0.0406
     21 C15         1.1061   -1.0940    1.1387 C.2       1 <0>         0.4119
     22 N3          1.3480   -0.7945    2.3958 N.2       1 <0>        -0.4778
     23 C16         1.7352   -1.7734    3.2703 C.ar      1 <0>         0.1188
     24 C17         0.9981   -2.9554    3.3716 C.ar      1 <0>        -0.1351
     25 C18         1.3943   -3.9382    4.2547 C.ar      1 <0>        -0.0927
     26 C19         2.5191   -3.7555    5.0400 C.ar      1 <0>        -0.1137
     27 C20         3.2547   -2.5874    4.9455 C.ar      1 <0>        -0.0964
     28 C21         2.8735   -1.5976    4.0620 C.ar      1 <0>        -0.0278
     29 Cl1         3.8012   -0.1354    3.9399 Cl        1 <0>        -0.0587
     30 H1          1.1194    1.7394    0.2471 H         1 <0>         0.0701
     31 H2         -0.5679    1.4172   -0.2192 H         1 <0>         0.0881
     32 H3         -0.0535    1.1950    1.4703 H         1 <0>         0.0892
     33 H4          0.2935   -2.3942   -3.3694 H         1 <0>         0.1560
     34 H5          1.2430   -4.7662   -0.3975 H         1 <0>         0.1705
     35 H6          1.0990   -3.8252   -5.4385 H         1 <0>         0.1213
     36 H7          1.7235   -5.5959   -7.0253 H         1 <0>         0.1209
     37 H8          2.4180   -7.8078   -6.2042 H         1 <0>         0.1231
     38 H9          2.5056   -8.2719   -3.7965 H         1 <0>         0.1198
     39 H10         1.5941   -7.2871   -0.0298 H         1 <0>         0.0938
     40 H11         1.8221   -8.3326   -1.4522 H         1 <0>         0.0916
     41 H12         0.1196   -3.0994    2.7601 H         1 <0>         0.1340
     42 H13         0.8250   -4.8525    4.3338 H         1 <0>         0.1338
     43 H14         2.8239   -4.5282    5.7301 H         1 <0>         0.1350
     44 H15         4.1314   -2.4515    5.5614 H         1 <0>         0.1376
@<TRIPOS>BOND
     1    1    2 1
     2    1   30 1
     3    1   31 1
     4    1   32 1
     5    2   21 1
     6    2    3 am
     7    3    4 2
     8    3    5 1
     9    5    6 2
    10    5   20 1
    11    6    7 1
    12    6   33 1
    13    7   11 1
    14    7    8 2
    15    8    9 1
    16    8   34 1
    17    9   10 1
    18    9   16 1
    19   10   15 ar
    20   10   11 ar
    21   11   12 ar
    22   12   13 ar
    23   12   35 1
    24   13   14 ar
    25   13   36 1
    26   14   15 ar
    27   14   37 1
    28   15   38 1
    29   16   17 1
    30   16   39 1
    31   16   40 1
    32   17   18 2
    33   17   19 1
    34   20   21 1
    35   21   22 2
    36   22   23 1
    37   23   28 ar
    38   23   24 ar
    39   24   25 ar
    40   24   41 1
    41   25   26 ar
    42   25   42 1
    43   26   27 ar
    44   26   43 1
    45   27   28 ar
    46   27   44 1
    47   28   29 1
@<TRIPOS>MOLECULE
ZINC09009560
   57    60     0     0     0
SMALL
USER_CHARGES

@<TRIPOS>ATOM
      1 C1         -2.9952    1.9396    1.6252 C.3       1 <0>        -0.1514
      2 C2         -2.1537    0.8196    1.0101 C.3       1 <0>        -0.1229
      3 C3         -3.0065   -0.4434    0.8745 C.3       1 <0>        -0.1393
      4 C4         -2.1650   -1.5634    0.2595 C.3       1 <0>         0.1389
      5 N1         -2.9816   -2.7728    0.1297 N.pl3     1 <0>        -0.6261
      6 C5         -3.1121   -3.8086    1.1571 C.3       1 <0>         0.1217
      7 C6         -4.0636   -4.8562    0.5560 C.3       1 <0>        -0.0751
      8 C7         -4.4080   -4.3104   -0.8121 C.ar      1 <0>        -0.2074
      9 C8         -3.7459   -3.0972   -0.9811 C.ar      1 <0>         0.2274
     10 C9         -3.9108   -2.3861   -2.1786 C.ar      1 <0>        -0.2015
     11 C10        -4.7120   -2.8708   -3.1667 C.ar      1 <0>         0.0656
     12 C11        -5.3828   -4.0927   -2.9922 C.ar      1 <0>        -0.1497
     13 C12        -5.2104   -4.8095   -1.7962 C.ar      1 <0>        -0.0182
     14 C13        -6.2188   -4.6020   -4.0167 C.2       1 <0>         0.0826
     15 C14        -5.7966   -4.5682   -5.3372 C.2       1 <0>        -0.2724
     16 C15        -4.3986   -4.2764   -5.6900 C.2       1 <0>         0.4966
     17 O1         -3.4811   -4.0321   -4.7309 O.3       1 <0>        -0.6183
     18 N2         -4.0616   -4.2593   -6.9684 N.2       1 <0>        -0.6640
     19 C16        -4.9446   -4.4968   -7.9352 C.2       1 <0>         0.6686
     20 O2         -4.5571   -4.4631   -9.0896 O.2       1 <0>        -0.5666
     21 N3         -6.2374   -4.7716   -7.7086 N.am      1 <0>        -0.5526
     22 C17        -6.7281   -4.8293   -6.4518 C.2       1 <0>         0.5670
     23 O3         -7.9000   -5.0838   -6.2454 O.2       1 <0>        -0.5241
     24 C18        -7.0921   -5.0081   -8.7935 C.ar      1 <0>         0.1648
     25 C19        -7.8505   -3.9713   -9.3205 C.ar      1 <0>        -0.1074
     26 C20        -8.6916   -4.2074  -10.3902 C.ar      1 <0>        -0.0801
     27 C21        -8.7789   -5.4748  -10.9364 C.ar      1 <0>        -0.1229
     28 C22        -8.0251   -6.5095  -10.4135 C.ar      1 <0>        -0.0799
     29 C23        -7.1779   -6.2783   -9.3474 C.ar      1 <0>        -0.1058
     30 C24        -8.1239   -7.8894  -11.0110 C.3       1 <0>        -0.1087
     31 C25        -9.5156   -3.0828  -10.9624 C.3       1 <0>        -0.1086
     32 H1         -2.3877    2.8394    1.7217 H         1 <0>         0.0530
     33 H2         -3.8508    2.1462    0.9822 H         1 <0>         0.0545
     34 H3         -3.3467    1.6312    2.6097 H         1 <0>         0.0518
     35 H4         -1.8022    1.1281    0.0255 H         1 <0>         0.0641
     36 H5         -1.2981    0.6130    1.6531 H         1 <0>         0.0607
     37 H6         -3.3580   -0.7519    1.8591 H         1 <0>         0.0612
     38 H7         -3.8621   -0.2368    0.2316 H         1 <0>         0.0671
     39 H8         -1.8135   -1.2550   -0.7251 H         1 <0>         0.0764
     40 H9         -1.3094   -1.7700    0.9024 H         1 <0>         0.0717
     41 H10        -2.1410   -4.2567    1.3677 H         1 <0>         0.0626
     42 H11        -3.5400   -3.3871    2.0667 H         1 <0>         0.0612
     43 H12        -3.5617   -5.8196    0.4664 H         1 <0>         0.0780
     44 H13        -4.9621   -4.9492    1.1661 H         1 <0>         0.0770
     45 H14        -3.3981   -1.4458   -2.3179 H         1 <0>         0.1109
     46 H15        -4.8323   -2.3154   -4.0851 H         1 <0>         0.1177
     47 H16        -5.7219   -5.7496   -1.6513 H         1 <0>         0.1162
     48 H17        -7.1849   -5.0165   -3.7691 H         1 <0>         0.1300
     49 H18        -7.7830   -2.9813   -8.8941 H         1 <0>         0.1190
     50 H19        -9.4373   -5.6570  -11.7728 H         1 <0>         0.1207
     51 H20        -6.5858   -7.0857   -8.9425 H         1 <0>         0.1194
     52 H21        -7.3850   -7.9951  -11.8053 H         1 <0>         0.0694
     53 H22        -7.9355   -8.6344  -10.2380 H         1 <0>         0.0644
     54 H23        -9.1227   -8.0368  -11.4219 H         1 <0>         0.0645
     55 H24        -8.9516   -2.5837  -11.7504 H         1 <0>         0.0691
     56 H25       -10.4406   -3.4842  -11.3762 H         1 <0>         0.0645
     57 H26        -9.7504   -2.3671  -10.1746 H         1 <0>         0.0644
@<TRIPOS>BOND
     1    1    2 1
     2    1   32 1
     3    1   33 1
     4    1   34 1
     5    2    3 1
     6    2   35 1
     7    2   36 1
     8    3    4 1
     9    3   37 1
    10    3   38 1
    11    4    5 1
    12    4   39 1
    13    4   40 1
    14    5    9 1
    15    5    6 1
    16    6    7 1
    17    6   41 1
    18    6   42 1
    19    7    8 1
    20    7   43 1
    21    7   44 1
    22    8   13 ar
    23    8    9 ar
    24    9   10 ar
    25   10   11 ar
    26   10   45 1
    27   11   12 ar
    28   11   46 1
    29   12   13 ar
    30   12   14 1
    31   13   47 1
    32   14   15 2
    33   14   48 1
    34   15   22 1
    35   15   16 1
    36   16   17 1
    37   16   18 2
    38   18   19 1
    39   19   20 2
    40   19   21 am
    41   21   22 am
    42   21   24 1
    43   22   23 2
    44   24   29 ar
    45   24   25 ar
    46   25   26 ar
    47   25   49 1
    48   26   27 ar
    49   26   31 1
    50   27   28 ar
    51   27   50 1
    52   28   29 ar
    53   28   30 1
    54   29   51 1
    55   30   52 1
    56   30   53 1
    57   30   54 1
    58   31   55 1
    59   31   56 1
    60   31   57 1
@<TRIPOS>MOLECULE
ZINC13026064
   40    43     0     0     0
SMALL
USER_CHARGES
(E)-3-(1,3-benzothiazol-2-yl)-4-[5-(3-bromophenyl)-2-furyl]but-3-enoic acid
@<TRIPOS>ATOM
      1 C1          0.8170    1.9041   -1.5704 C.ar      1 <0>        -0.1143
      2 C2         -0.3265    1.1754   -1.2738 C.ar      1 <0>        -0.1087
      3 C3         -1.4290    1.8269   -0.7518 C.ar      1 <0>        -0.0624
      4 C4         -1.3690    3.1797   -0.5252 C.ar      1 <0>        -0.1604
      5 C5         -0.2179    3.9508   -0.8170 C.ar      1 <0>         0.0920
      6 C6          0.8853    3.2449   -1.3559 C.ar      1 <0>        -0.0682
      7 N1         -0.3093    5.2610   -0.5474 N.2       1 <0>        -0.5174
      8 C7         -1.3999    5.8075   -0.0414 C.2       1 <0>         0.2295
      9 S1         -2.4910    4.4000    0.1136 S.3       1 <0>         0.0227
     10 C8         -1.6507    7.2065    0.3043 C.2       1 <0>         0.0015
     11 C9         -0.6851    8.1351    0.1106 C.2       1 <0>        -0.0450
     12 C10        -0.9788    9.5105    0.2873 C.2       1 <0>         0.0404
     13 C11        -0.0648   10.5444    0.2620 C.2       1 <0>        -0.1876
     14 C12        -0.7849   11.7250    0.4766 C.2       1 <0>        -0.1888
     15 C13        -2.0946   11.3739    0.6313 C.2       1 <0>         0.0267
     16 O1         -2.1998   10.0370    0.5153 O.3       1 <0>        -0.1300
     17 C14        -3.2109   12.3060    0.8835 C.ar      1 <0>        -0.0100
     18 C15        -4.5132   11.8196    1.0239 C.ar      1 <0>        -0.0727
     19 C16        -5.5518   12.6957    1.2595 C.ar      1 <0>        -0.1069
     20 C17        -5.3070   14.0543    1.3569 C.ar      1 <0>        -0.0894
     21 C18        -4.0193   14.5438    1.2189 C.ar      1 <0>        -0.0941
     22 C19        -2.9695   13.6776    0.9887 C.ar      1 <0>        -0.0738
     23 Br1        -3.6970   16.4023    1.3534 Br        1 <0>        -0.0567
     24 C20        -2.9842    7.6140    0.8760 C.3       1 <0>        -0.1394
     25 C21        -3.9412    7.9173   -0.2480 C.2       1 <0>         0.4788
     26 O2         -3.5777    7.8131   -1.3955 O.co2     1 <0>        -0.6270
     27 H1          1.6744    1.3929   -1.9826 H         1 <0>         0.1294
     28 H2         -0.3566    0.1108   -1.4532 H         1 <0>         0.1342
     29 H3         -2.3282    1.2754   -0.5200 H         1 <0>         0.1310
     30 H4          1.7923    3.7783   -1.5992 H         1 <0>         0.1297
     31 H5          0.3091    7.8281   -0.1785 H         1 <0>         0.1561
     32 H6          1.0003   10.4590    0.1047 H         1 <0>         0.1545
     33 H7         -0.3799   12.7253    0.5163 H         1 <0>         0.1503
     34 H8         -4.7061   10.7596    0.9478 H         1 <0>         0.1557
     35 H9         -6.5587   12.3207    1.3685 H         1 <0>         0.1384
     36 H10        -6.1242   14.7358    1.5418 H         1 <0>         0.1325
     37 H11        -1.9647   14.0599    0.8860 H         1 <0>         0.1356
     38 H12        -3.3828    6.8013    1.4833 H         1 <0>         0.0773
     39 H13        -2.8579    8.5021    1.4952 H         1 <0>         0.0993
     40 O3         -5.1973    8.3030    0.0258 O.co2     1 <0>        -0.7630
@<TRIPOS>BOND
     1    1    6 ar
     2    1    2 ar
     3    1   27 1
     4    2    3 ar
     5    2   28 1
     6    3    4 ar
     7    3   29 1
     8    4    9 1
     9    4    5 ar
    10    5    6 ar
    11    5    7 1
    12    6   30 1
    13    7    8 2
    14    8    9 1
    15    8   10 1
    16   10   11 2
    17   10   24 1
    18   11   12 1
    19   11   31 1
    20   12   16 1
    21   12   13 2
    22   13   14 1
    23   13   32 1
    24   14   15 2
    25   14   33 1
    26   15   16 1
    27   15   17 1
    28   17   22 ar
    29   17   18 ar
    30   18   19 ar
    31   18   34 1
    32   19   20 ar
    33   19   35 1
    34   20   21 ar
    35   20   36 1
    36   21   22 ar
    37   21   23 1
    38   22   37 1
    39   24   25 1
    40   24   38 1
    41   24   39 1
    42   25   26 2
    43   25   40 1
@<TRIPOS>MOLECULE
ZINC27230233
   32    34     0     0     0
SMALL
USER_CHARGES
(5E)-5-[(E)-3-(2-furyl)prop-2-enylidene]-2-[(4-iodophenyl)amino]thiazol-4-one
@<TRIPOS>ATOM
      1 C1          2.1216   12.8680   -0.7096 C.2       1 <0>        -0.2146
      2 C2          3.3455   12.1822   -0.7236 C.2       1 <0>        -0.2063
      3 C3          3.0442   10.8387   -0.6123 C.2       1 <0>         0.0343
      4 O1          1.7017   10.7223   -0.5405 O.3       1 <0>        -0.1631
      5 C4          1.1447   11.9411   -0.5933 C.2       1 <0>        -0.0427
      6 C5          3.9754    9.7755   -0.5848 C.2       1 <0>        -0.1115
      7 C6          3.5386    8.4906   -0.4707 C.2       1 <0>        -0.0801
      8 C7          4.4627    7.4355   -0.4434 C.2       1 <0>        -0.0427
      9 C8          4.0207    6.1353   -0.3279 C.2       1 <0>        -0.1700
     10 C9          2.6455    5.6105   -0.2188 C.2       1 <0>         0.5249
     11 O2          1.6727    6.3499   -0.2206 O.2       1 <0>        -0.5285
     12 N1          2.5224    4.3038   -0.1249 N.2       1 <0>        -0.7100
     13 C10         3.5675    3.4923   -0.1163 C.2       1 <0>         0.4501
     14 S1          4.9524    4.6099   -0.2680 S.3       1 <0>        -0.1196
     15 N2          3.5831    2.1232   -0.0202 N.2       1 <0>        -0.5706
     16 C11         2.3929    1.4244    0.2028 C.ar      1 <0>         0.1806
     17 C12         1.3458    2.0327    0.8835 C.ar      1 <0>        -0.1486
     18 C13         0.1714    1.3398    1.1022 C.ar      1 <0>        -0.0700
     19 C14         0.0369    0.0415    0.6438 C.ar      1 <0>        -0.1400
     20 C15         1.0777   -0.5668   -0.0348 C.ar      1 <0>        -0.0736
     21 C16         2.2548    0.1207   -0.2563 C.ar      1 <0>        -0.1386
     22 I1         -1.7463   -1.0058    0.9786 I         1 <0>        -0.0811
     23 H1          1.9854   13.9372   -0.7783 H         1 <0>         0.1466
     24 H2          4.3299   12.6190   -0.8054 H         1 <0>         0.1489
     25 H3          0.0855   12.1484   -0.5540 H         1 <0>         0.2000
     26 H4          5.0528    9.9859   -0.6556 H         1 <0>         0.1463
     27 H5          2.4612    8.2802   -0.4000 H         1 <0>         0.1504
     28 H6          5.5401    7.6459   -0.5142 H         1 <0>         0.1304
     29 H7          1.4504    3.0461    1.2419 H         1 <0>         0.1417
     30 H8         -0.6445    1.8136    1.6278 H         1 <0>         0.1152
     31 H9          0.9698   -1.5804   -0.3915 H         1 <0>         0.1185
     32 H10         3.0670   -0.3547   -0.7861 H         1 <0>         0.1237
@<TRIPOS>BOND
     1    1    5 2
     2    1    2 1
     3    1   23 1
     4    2    3 2
     5    2   24 1
     6    3    4 1
     7    3    6 1
     8    4    5 1
     9    5   25 1
    10    6    7 2
    11    6   26 1
    12    7    8 1
    13    7   27 1
    14    8    9 2
    15    8   28 1
    16    9   14 1
    17    9   10 1
    18   10   11 2
    19   10   12 1
    20   12   13 2
    21   13   14 1
    22   13   15 1
    23   15   16 1
    24   16   21 ar
    25   16   17 ar
    26   17   18 ar
    27   17   29 1
    28   18   19 ar
    29   18   30 1
    30   19   20 ar
    31   19   22 1
    32   20   21 ar
    33   20   31 1
    34   21   32 1
@<TRIPOS>MOLECULE
ZINC02337674
   31    33     0     0     0
SMALL
USER_CHARGES
3-(4-chlorophenyl)-4-[(2,3-dichlorophenyl)methyleneamino]-1H-1,2,4-triazole-5-thione
@<TRIPOS>ATOM
      1 C1         -0.0126    1.0758    0.0080 C.ar      1 <0>        -0.1115
      2 C2         -1.2176    1.7471    0.0173 C.ar      1 <0>        -0.0665
      3 C3         -1.2360    3.1438    0.0307 C.ar      1 <0>        -0.0411
      4 C4         -0.0306    3.8521    0.0235 C.ar      1 <0>         0.0026
      5 C5          1.1687    3.1664    0.0084 C.ar      1 <0>        -0.0414
      6 C6          1.1773    1.7817    0.0004 C.ar      1 <0>        -0.0817
      7 Cl1         2.6675    4.0422   -0.0012 Cl        1 <0>        -0.0473
      8 Cl2        -0.0408    5.5881    0.0341 Cl        1 <0>         0.0066
      9 C7         -2.5203    3.8676    0.0474 C.2       1 <0>         0.1478
     10 N1         -2.5338    5.1656    0.0554 N.2       1 <0>        -0.1943
     11 N2         -3.7543    5.8533    0.0712 N.pl3     1 <0>        -0.3781
     12 C8         -4.4491    6.2441    1.2002 C.2       1 <0>         0.2000
     13 N3         -5.5367    6.8582    0.8250 N.2       1 <0>        -0.2951
     14 N4         -5.5642    6.8752   -0.5761 N.2       1 <0>        -0.3679
     15 C9         -4.4499    6.2528   -1.0121 C.2       1 <0>         0.3967
     16 S1         -4.0017    6.0104   -2.6465 S.3       1 <0>        -0.7541
     17 C10        -4.0298    6.0056    2.5988 C.ar      1 <0>         0.0158
     18 C11        -3.0291    5.0751    2.8809 C.ar      1 <0>        -0.1058
     19 C12        -2.6389    4.8603    4.1865 C.ar      1 <0>        -0.1035
     20 C13        -3.2453    5.5588    5.2169 C.ar      1 <0>        -0.0359
     21 C14        -4.2426    6.4796    4.9434 C.ar      1 <0>        -0.1069
     22 C15        -4.6376    6.7061    3.6412 C.ar      1 <0>        -0.0740
     23 Cl3        -2.7537    5.2785    6.8581 Cl        1 <0>        -0.0771
     24 H1          0.0021   -0.0041    0.0020 H         1 <0>         0.1443
     25 H2         -2.1451    1.1939    0.0184 H         1 <0>         0.1457
     26 H3          2.1174    1.2502   -0.0114 H         1 <0>         0.1440
     27 H4         -3.4671    3.3077    0.0531 H         1 <0>         0.1320
     28 H5         -2.5583    4.5269    2.0783 H         1 <0>         0.1307
     29 H6         -1.8620    4.1428    4.4057 H         1 <0>         0.1342
     30 H7         -4.7124    7.0212    5.7511 H         1 <0>         0.1374
     31 H8         -5.4161    7.4240    3.4291 H         1 <0>         0.1448
@<TRIPOS>BOND
     1    1    6 ar
     2    1    2 ar
     3    1   24 1
     4    2    3 ar
     5    2   25 1
     6    3    4 ar
     7    3    9 1
     8    4    5 ar
     9    4    8 1
    10    5    6 ar
    11    5    7 1
    12    6   26 1
    13    9   10 2
    14    9   27 1
    15   10   11 1
    16   11   15 1
    17   11   12 1
    18   12   13 2
    19   12   17 1
    20   13   14 1
    21   14   15 2
    22   15   16 1
    23   17   22 ar
    24   17   18 ar
    25   18   19 ar
    26   18   28 1
    27   19   20 ar
    28   19   29 1
    29   20   21 ar
    30   20   23 1
    31   21   22 ar
    32   21   30 1
    33   22   31 1
@<TRIPOS>MOLECULE
ZINC39556877
   45    48     0     0     0
SMALL
USER_CHARGES

@<TRIPOS>ATOM
      1 C1         -0.1962    1.2636    0.0952 C.2       1 <0>        -0.1907
      2 C2         -0.1600   -0.0458    0.0762 C.2       1 <0>        -0.1501
      3 C3         -1.4438   -0.8349    0.0629 C.3       1 <0>         0.1535
      4 N1         -1.4433   -1.7490   -1.0819 N.am      1 <0>        -0.5693
      5 C4         -1.9073   -1.4666   -2.3189 C.2       1 <0>         0.5130
      6 O1         -2.4017   -0.4202   -2.6998 O.2       1 <0>        -0.5227
      7 C5         -1.6903   -2.6866   -3.1084 C.2       1 <0>        -0.0375
      8 C6         -2.0052   -2.8835   -4.4381 C.2       1 <0>         0.0107
      9 C7         -1.7286   -4.1288   -5.0548 C.2       1 <0>        -0.1627
     10 C8         -1.1578   -5.2361   -4.4638 C.2       1 <0>         0.1267
     11 N2         -1.0557   -6.2339   -5.3770 N.pl3     1 <0>        -0.4674
     12 C9         -1.5523   -5.8256   -6.5982 C.ar      1 <0>         0.0884
     13 C10        -1.9999   -4.5024   -6.4568 C.ar      1 <0>        -0.0785
     14 C11        -2.5599   -3.8344   -7.5420 C.ar      1 <0>        -0.0755
     15 C12        -2.6762   -4.4794   -8.7545 C.ar      1 <0>        -0.1478
     16 C13        -2.2381   -5.7877   -8.8955 C.ar      1 <0>        -0.1120
     17 C14        -1.6743   -6.4579   -7.8314 C.ar      1 <0>        -0.1251
     18 C15        -0.4958   -7.5601   -5.1050 C.3       1 <0>         0.1494
     19 C16         0.0690   -7.5901   -3.7082 C.ar      1 <0>        -0.1079
     20 C17         1.3604   -7.1527   -3.4745 C.ar      1 <0>        -0.0016
     21 C18         1.8784   -7.1805   -2.1919 C.ar      1 <0>        -0.0974
     22 C19         1.1060   -7.6456   -1.1442 C.ar      1 <0>        -0.0583
     23 C20        -0.1844   -8.0827   -1.3771 C.ar      1 <0>        -0.0938
     24 C21        -0.7056   -8.0496   -2.6583 C.ar      1 <0>        -0.0010
     25 Cl1        -2.3290   -8.5914   -2.9494 Cl        1 <0>        -0.0562
     26 Cl2         2.3310   -6.5696   -4.7904 Cl        1 <0>        -0.0562
     27 N3         -1.1117   -3.5878   -2.2563 N.2       1 <0>        -0.5510
     28 C22        -0.9664   -3.0349   -1.0817 C.2       1 <0>         0.4948
     29 S1         -0.2564   -3.8360    0.3178 S.3       1 <0>        -0.7799
     30 H1          0.7239    1.8291    0.1048 H         1 <0>         0.0961
     31 H2         -1.1460    1.7776    0.0969 H         1 <0>         0.0947
     32 H3          0.7898   -0.5597    0.0701 H         1 <0>         0.1140
     33 H4         -1.5272   -1.4086    0.9859 H         1 <0>         0.1059
     34 H5         -2.2894   -0.1518   -0.0179 H         1 <0>         0.0780
     35 H6         -2.4623   -2.0882   -5.0082 H         1 <0>         0.1278
     36 H7         -0.8405   -5.2989   -3.4333 H         1 <0>         0.2060
     37 H8         -2.9020   -2.8157   -7.4343 H         1 <0>         0.1206
     38 H9         -3.1106   -3.9639   -9.5983 H         1 <0>         0.1180
     39 H10        -2.3338   -6.2839   -9.8500 H         1 <0>         0.1191
     40 H11        -1.3379   -7.4771   -7.9517 H         1 <0>         0.1139
     41 H12        -1.2804   -8.3113   -5.1959 H         1 <0>         0.0931
     42 H13         0.2968   -7.7739   -5.8221 H         1 <0>         0.0939
     43 H14         2.8866   -6.8391   -2.0093 H         1 <0>         0.1401
     44 H15         1.5111   -7.6678   -0.1433 H         1 <0>         0.1442
     45 H16        -0.7873   -8.4463   -0.5581 H         1 <0>         0.1411
@<TRIPOS>BOND
     1    1    2 2
     2    1   30 1
     3    1   31 1
     4    2    3 1
     5    2   32 1
     6    3    4 1
     7    3   33 1
     8    3   34 1
     9    4   28 1
    10    4    5 am
    11    5    6 2
    12    5    7 1
    13    7    8 2
    14    7   27 1
    15    8    9 1
    16    8   35 1
    17    9   13 1
    18    9   10 2
    19   10   11 1
    20   10   36 1
    21   11   12 1
    22   11   18 1
    23   12   17 ar
    24   12   13 ar
    25   13   14 ar
    26   14   15 ar
    27   14   37 1
    28   15   16 ar
    29   15   38 1
    30   16   17 ar
    31   16   39 1
    32   17   40 1
    33   18   19 1
    34   18   41 1
    35   18   42 1
    36   19   24 ar
    37   19   20 ar
    38   20   21 ar
    39   20   26 1
    40   21   22 ar
    41   21   43 1
    42   22   23 ar
    43   22   44 1
    44   23   24 ar
    45   23   45 1
    46   24   25 1
    47   27   28 2
    48   28   29 1
@<TRIPOS>MOLECULE
ZINC59105385
   44    46     0     0     0
SMALL
USER_CHARGES

@<TRIPOS>ATOM
      1 C1          0.2816    1.5765    0.1441 C.3       1 <0>        -0.1469
      2 C2          0.3230    0.0472    0.1584 C.3       1 <0>         0.0642
      3 O1          0.9273   -0.4242   -1.0477 O.3       1 <0>        -0.3186
      4 C3          1.0408   -1.7567   -1.1937 C.2       1 <0>         0.4980
      5 O2          0.5947   -2.5796   -0.2275 O.3       1 <0>        -0.6235
      6 C4          1.6192   -2.2834   -2.3431 C.2       1 <0>        -0.4594
      7 C5          1.7649   -3.7306   -2.5475 C.2       1 <0>         0.3187
      8 S1          2.5472   -3.8615   -4.1414 S.3       1 <0>        -0.0931
      9 C6          2.6975   -2.1378   -4.5612 C.2       1 <0>        -0.1662
     10 C7          3.2284   -1.5940   -5.6838 C.2       1 <0>        -0.0270
     11 C8          3.9167   -2.4503   -6.6607 C.ar      1 <0>        -0.0646
     12 C9          4.0843   -2.0174   -7.9807 C.ar      1 <0>        -0.0978
     13 C10         4.7313   -2.8262   -8.8905 C.ar      1 <0>        -0.1254
     14 C11         5.2145   -4.0635   -8.5013 C.ar      1 <0>        -0.0868
     15 C12         5.0524   -4.4995   -7.1976 C.ar      1 <0>        -0.1165
     16 C13         4.4128   -3.7003   -6.2740 C.ar      1 <0>        -0.1011
     17 C14         5.9205   -4.9411   -9.5025 C.3       1 <0>        -0.1137
     18 C15         2.1061   -1.4411   -3.4079 C.2       1 <0>         0.4276
     19 O3          2.0356   -0.2250   -3.3538 O.2       1 <0>        -0.4882
     20 N1          1.4011   -4.7061   -1.7383 N.2       1 <0>        -0.4844
     21 C16         1.6171   -6.0070   -2.0962 C.ar      1 <0>         0.1534
     22 C17         1.3158   -6.4381   -3.3911 C.ar      1 <0>        -0.1694
     23 C18         1.5367   -7.7524   -3.7457 C.ar      1 <0>        -0.0639
     24 C19         2.0553   -8.6442   -2.8221 C.ar      1 <0>        -0.1262
     25 C20         2.3560   -8.2240   -1.5374 C.ar      1 <0>        -0.0714
     26 C21         2.1456   -6.9113   -1.1709 C.ar      1 <0>        -0.1240
     27 Br1         2.3535  -10.4447   -3.3173 Br        1 <0>        -0.0733
     28 H1          1.2966    1.9668    0.0697 H         1 <0>         0.0615
     29 H2         -0.3020    1.9163   -0.7116 H         1 <0>         0.0614
     30 H3         -0.1794    1.9361    1.0641 H         1 <0>         0.0678
     31 H4          0.9065   -0.2925    1.0140 H         1 <0>         0.0561
     32 H5         -0.6920   -0.3431    0.2328 H         1 <0>         0.0560
     33 H6          3.1456   -0.5318   -5.8605 H         1 <0>         0.1456
     34 H7          3.7075   -1.0524   -8.2860 H         1 <0>         0.1254
     35 H8          4.8612   -2.4937   -9.9098 H         1 <0>         0.1208
     36 H9          5.4317   -5.4665   -6.9020 H         1 <0>         0.1227
     37 H10         4.2914   -4.0397   -5.2560 H         1 <0>         0.1429
     38 H11         6.9882   -4.7219   -9.4887 H         1 <0>         0.0685
     39 H12         5.7612   -5.9880   -9.2442 H         1 <0>         0.0657
     40 H13         5.5229   -4.7481  -10.4989 H         1 <0>         0.0640
     41 H14         0.9107   -5.7437   -4.1123 H         1 <0>         0.1337
     42 H15         1.3044   -8.0869   -4.7459 H         1 <0>         0.1262
     43 H16         2.7602   -8.9249   -0.8221 H         1 <0>         0.1283
     44 H17         2.3848   -6.5838   -0.1699 H         1 <0>         0.1326
@<TRIPOS>BOND
     1    1    2 1
     2    1   28 1
     3    1   29 1
     4    1   30 1
     5    2    3 1
     6    2   31 1
     7    2   32 1
     8    3    4 1
     9    4    5 1
    10    4    6 2
    11    6    7 1
    12    6   18 1
    13    7   20 2
    14    7    8 1
    15    8    9 1
    16    9   10 2
    17    9   18 1
    18   10   11 1
    19   10   33 1
    20   11   16 ar
    21   11   12 ar
    22   12   13 ar
    23   12   34 1
    24   13   14 ar
    25   13   35 1
    26   14   15 ar
    27   14   17 1
    28   15   16 ar
    29   15   36 1
    30   16   37 1
    31   17   38 1
    32   17   39 1
    33   17   40 1
    34   18   19 2
    35   20   21 1
    36   21   26 ar
    37   21   22 ar
    38   22   23 ar
    39   22   41 1
    40   23   24 ar
    41   23   42 1
    42   24   25 ar
    43   24   27 1
    44   25   26 ar
    45   25   43 1
    46   26   44 1
@<TRIPOS>MOLECULE
ZINC07907437
   42    45     0     0     0
SMALL
USER_CHARGES
3-benzothiazol-2-yl-4-(8-chloro-2,6-dioxabicyclo[5.4.0]undeca-7,9,11-trien-10-yl)-but-3-enoic acid
@<TRIPOS>ATOM
      1 C1          2.6158   12.9106   -4.1906 C.ar      1 <0>        -0.1149
      2 C2          3.4024   12.7936   -5.3283 C.ar      1 <0>        -0.1090
      3 C3          3.5884   11.5477   -5.8984 C.ar      1 <0>        -0.0624
      4 C4          2.9926   10.4492   -5.3293 C.ar      1 <0>        -0.1608
      5 C5          2.1851   10.5356   -4.1696 C.ar      1 <0>         0.0915
      6 C6          2.0209   11.8300   -3.6191 C.ar      1 <0>        -0.0682
      7 N1          1.6708    9.3781   -3.7292 N.2       1 <0>        -0.5184
      8 C7          1.8968    8.2260   -4.3311 C.2       1 <0>         0.2341
      9 S1          2.9541    8.7098   -5.6889 S.3       1 <0>         0.0254
     10 C8          1.4105    6.8902   -3.9741 C.2       1 <0>        -0.0013
     11 C9          0.6181    6.7275   -2.8969 C.2       1 <0>        -0.0664
     12 C10         0.1577    5.3819   -2.5186 C.ar      1 <0>        -0.0335
     13 C11        -0.2712    4.4847   -3.5037 C.ar      1 <0>        -0.0919
     14 C12        -0.7005    3.2243   -3.1382 C.ar      1 <0>         0.0817
     15 C13        -0.7079    2.8477   -1.8003 C.ar      1 <0>         0.0719
     16 C14        -0.2837    3.7344   -0.8204 C.ar      1 <0>        -0.0401
     17 C15         0.1482    4.9968   -1.1745 C.ar      1 <0>        -0.0912
     18 Cl1        -0.2967    3.2566    0.8485 Cl        1 <0>        -0.0587
     19 O1         -1.1351    1.5986   -1.4553 O.3       1 <0>        -0.3084
     20 C16        -2.5272    1.3392   -1.6456 C.3       1 <0>         0.0601
     21 C17        -2.8054    0.9146   -3.0790 C.3       1 <0>        -0.1864
     22 C18        -2.5135    2.0236   -4.0778 C.3       1 <0>         0.0574
     23 O2         -1.1201    2.3399   -4.0895 O.3       1 <0>        -0.3037
     24 C19         1.7971    5.6988   -4.8120 C.3       1 <0>        -0.1472
     25 C20         0.8896    5.6129   -6.0120 C.2       1 <0>         0.4670
     26 O3          0.0183    6.4348   -6.1706 O.co2     1 <0>        -0.6254
     27 H1          2.4724   13.8854   -3.7482 H         1 <0>         0.1289
     28 H2          3.8649   13.6670   -5.7637 H         1 <0>         0.1339
     29 H3          4.1978   11.4393   -6.7835 H         1 <0>         0.1309
     30 H4          1.4158   11.9602   -2.7341 H         1 <0>         0.1293
     31 H5          0.3206    7.5846   -2.3110 H         1 <0>         0.1412
     32 H6         -0.2660    4.7764   -4.5435 H         1 <0>         0.1686
     33 H7          0.4786    5.6875   -0.4128 H         1 <0>         0.1447
     34 H8         -2.8397    0.5439   -0.9689 H         1 <0>         0.1032
     35 H9         -3.0942    2.2430   -1.4228 H         1 <0>         0.0570
     36 H10        -2.1852    0.0507   -3.3181 H         1 <0>         0.0844
     37 H11        -3.8538    0.6292   -3.1656 H         1 <0>         0.0890
     38 H12        -3.0810    2.9128   -3.8036 H         1 <0>         0.0580
     39 H13        -2.8158    1.6979   -5.0731 H         1 <0>         0.1068
     40 H14         2.8295    5.8079   -5.1442 H         1 <0>         0.0786
     41 H15         1.7008    4.7901   -4.2178 H         1 <0>         0.0974
     42 O4          1.0492    4.6233   -6.9047 O.co2     1 <0>        -0.7528
@<TRIPOS>BOND
     1    1    6 ar
     2    1    2 ar
     3    1   27 1
     4    2    3 ar
     5    2   28 1
     6    3    4 ar
     7    3   29 1
     8    4    9 1
     9    4    5 ar
    10    5    6 ar
    11    5    7 1
    12    6   30 1
    13    7    8 2
    14    8    9 1
    15    8   10 1
    16   10   11 2
    17   10   24 1
    18   11   12 1
    19   11   31 1
    20   12   17 ar
    21   12   13 ar
    22   13   14 ar
    23   13   32 1
    24   14   23 1
    25   14   15 ar
    26   15   16 ar
    27   15   19 1
    28   16   17 ar
    29   16   18 1
    30   17   33 1
    31   19   20 1
    32   20   21 1
    33   20   34 1
    34   20   35 1
    35   21   22 1
    36   21   36 1
    37   21   37 1
    38   22   23 1
    39   22   38 1
    40   22   39 1
    41   24   25 1
    42   24   40 1
    43   24   41 1
    44   25   26 2
    45   25   42 1
@<TRIPOS>MOLECULE
ZINC24369031
   50    53     0     0     0
SMALL
USER_CHARGES
3-(2,3-dimethylphenyl)-N-methyl-4-oxo-N-phenyl-2-sulfanyl-quinazoline-7-carboxamide
@<TRIPOS>ATOM
      1 C1          6.1402    5.9810    4.6828 C.3       1 <0>        -0.1079
      2 C2          5.9514    5.1932    3.4121 C.ar      1 <0>        -0.0859
      3 C3          6.9849    5.0987    2.4979 C.ar      1 <0>        -0.1146
      4 C4          6.8159    4.3761    1.3313 C.ar      1 <0>        -0.1160
      5 C5          5.6134    3.7464    1.0753 C.ar      1 <0>        -0.0921
      6 C6          4.5738    3.8397    1.9909 C.ar      1 <0>         0.1637
      7 C7          4.7449    4.5707    3.1593 C.ar      1 <0>        -0.0545
      8 C8          3.6171    4.6797    4.1528 C.3       1 <0>        -0.1071
      9 N1          3.3531    3.2028    1.7340 N.pl3     1 <0>        -0.5016
     10 C9          2.3776    3.8642    1.0695 C.2       1 <0>         0.5497
     11 O1          2.5394    5.0083    0.6869 O.3       1 <0>        -0.5251
     12 C10         1.1147    3.1505    0.8258 C.ar      1 <0>        -0.2231
     13 C11         0.0529    3.7512    0.1499 C.ar      1 <0>        -0.0258
     14 C12        -1.1032    3.0550   -0.0564 C.ar      1 <0>        -0.1860
     15 C13        -1.2327    1.7366    0.3989 C.ar      1 <0>        -0.0865
     16 C14        -0.1905    1.1207    1.0798 C.ar      1 <0>        -0.0724
     17 C15         0.9978    1.8234    1.2979 C.ar      1 <0>         0.2028
     18 N2          2.0413    1.2608    1.9518 N.2       1 <0>        -0.5596
     19 C16         3.1563    1.9172    2.1571 C.2       1 <0>         0.5353
     20 S1          4.4628    1.1063    3.0175 S.2       1 <0>        -0.7401
     21 C17        -2.4921    0.9969    0.1592 C.2       1 <0>         0.5657
     22 O2         -2.4672   -0.2061   -0.0118 O.2       1 <0>        -0.5039
     23 N3         -3.6666    1.6575    0.1305 N.am      1 <0>        -0.5510
     24 C18        -3.6860    3.1206    0.2024 C.3       1 <0>         0.0476
     25 C19        -4.8665    0.9463    0.0322 C.ar      1 <0>         0.1573
     26 C20        -4.8635   -0.4398    0.1222 C.ar      1 <0>        -0.1631
     27 C21        -6.0511   -1.1387    0.0304 C.ar      1 <0>        -0.0960
     28 C22        -7.2410   -0.4610   -0.1623 C.ar      1 <0>        -0.1509
     29 C23        -7.2468    0.9186   -0.2581 C.ar      1 <0>        -0.0976
     30 C24        -6.0634    1.6240   -0.1614 C.ar      1 <0>        -0.1659
     31 H1          7.1571    6.3997    4.7069 H         1 <0>         0.0624
     32 H2          5.9955    5.3192    5.5494 H         1 <0>         0.0689
     33 H3          5.4058    6.7991    4.7195 H         1 <0>         0.0653
     34 H4          7.9260    5.5901    2.6958 H         1 <0>         0.1200
     35 H5          7.6248    4.3041    0.6194 H         1 <0>         0.1224
     36 H6          5.4819    3.1823    0.1637 H         1 <0>         0.1161
     37 H7          2.7449    4.1228    3.7799 H         1 <0>         0.0533
     38 H8          3.3470    5.7376    4.2863 H         1 <0>         0.0655
     39 H9          3.9362    4.2582    5.1174 H         1 <0>         0.0747
     40 H10         0.1452    4.7653   -0.2101 H         1 <0>         0.1331
     41 H11        -1.9237    3.5233   -0.5799 H         1 <0>         0.1502
     42 H12        -0.2958    0.1058    1.4338 H         1 <0>         0.1421
     43 H13        -4.7264    3.4757    0.1655 H         1 <0>         0.0867
     44 H14        -3.1261    3.5369   -0.6480 H         1 <0>         0.0934
     45 H15        -3.2201    3.4476    1.1436 H         1 <0>         0.0826
     46 H16        -3.9340   -0.9700    0.2679 H         1 <0>         0.1758
     47 H17        -6.0500   -2.2162    0.1048 H         1 <0>         0.1236
     48 H18        -8.1678   -1.0102   -0.2379 H         1 <0>         0.1186
     49 H19        -8.1778    1.4449   -0.4082 H         1 <0>         0.1226
     50 H20        -6.0686    2.7013   -0.2366 H         1 <0>         0.1274
@<TRIPOS>BOND
     1    1    2 1
     2    1   31 1
     3    1   32 1
     4    1   33 1
     5    2    7 ar
     6    2    3 ar
     7    3    4 ar
     8    3   34 1
     9    4    5 ar
    10    4   35 1
    11    5    6 ar
    12    5   36 1
    13    6    7 ar
    14    6    9 1
    15    7    8 1
    16    8   37 1
    17    8   38 1
    18    8   39 1
    19    9   19 1
    20    9   10 1
    21   10   11 1
    22   10   12 2
    23   12   17 ar
    24   12   13 ar
    25   13   14 ar
    26   13   40 1
    27   14   15 ar
    28   14   41 1
    29   15   16 ar
    30   15   21 1
    31   16   17 ar
    32   16   42 1
    33   17   18 2
    34   18   19 1
    35   19   20 2
    36   21   22 2
    37   21   23 am
    38   23   24 1
    39   23   25 1
    40   24   43 1
    41   24   44 1
    42   24   45 1
    43   25   30 ar
    44   25   26 ar
    45   26   27 ar
    46   26   46 1
    47   27   28 ar
    48   27   47 1
    49   28   29 ar
    50   28   48 1
    51   29   30 ar
    52   29   49 1
    53   30   50 1
@<TRIPOS>MOLECULE
ZINC12485536
   37    40     0     0     0
SMALL
USER_CHARGES

@<TRIPOS>ATOM
      1 C1         -0.0166    1.3749    0.0096 C.ar      1 <0>        -0.1058
      2 C2          1.1703    2.0868    0.0021 C.ar      1 <0>        -0.1063
      3 C3          2.3834    1.4221   -0.0130 C.ar      1 <0>        -0.0931
      4 C4          2.4176    0.0420   -0.0212 C.ar      1 <0>        -0.0736
      5 C5          1.2229   -0.6828   -0.0136 C.ar      1 <0>         0.0091
      6 C6          0.0021   -0.0041    0.0020 C.ar      1 <0>        -0.0867
      7 C7          1.2508   -2.1587   -0.0228 C.2       1 <0>         0.0267
      8 C8          0.5579   -2.9724    0.8247 C.2       1 <0>        -0.1792
      9 C9          0.8676   -4.2922    0.4730 C.2       1 <0>        -0.1600
     10 C10         1.7464   -4.2256   -0.5862 C.2       1 <0>         0.0438
     11 O1          1.9598   -2.9249   -0.8725 O.3       1 <0>        -0.1235
     12 C11         2.3409   -5.3674   -1.2826 C.2       1 <0>         0.2017
     13 N1          3.1616   -5.1700   -2.2741 N.2       1 <0>        -0.1842
     14 N2          3.7307   -6.2630   -2.9407 N.pl3     1 <0>        -0.3525
     15 C12         4.9108   -6.9044   -2.6323 C.2       1 <0>         0.1511
     16 N3          5.0650   -7.8706   -3.5100 N.2       1 <0>        -0.2543
     17 N4          4.0783   -7.8778   -4.3332 N.2       1 <0>        -0.3255
     18 C13         3.2283   -6.9199   -4.0295 C.2       1 <0>         0.3828
     19 S1          1.7255   -6.5501   -4.8719 S.3       1 <0>        -0.7805
     20 C14         5.8288   -6.5693   -1.5253 C.ar      1 <0>         0.2273
     21 C15         6.9963   -7.3135   -1.3437 C.ar      1 <0>        -0.1387
     22 C16         7.8456   -6.9870   -0.3023 C.ar      1 <0>        -0.0730
     23 C17         7.5025   -5.9266    0.5261 C.ar      1 <0>        -0.1833
     24 C18         6.3310   -5.2316    0.2897 C.ar      1 <0>         0.1061
     25 N5          5.5406   -5.5583   -0.7125 N.ar      1 <0>        -0.4748
     26 Br1         4.0767   -0.8650   -0.0431 Br        1 <0>        -0.0252
     27 H1         -0.9599    1.9006    0.0259 H         1 <0>         0.1352
     28 H2          1.1493    3.1666    0.0077 H         1 <0>         0.1340
     29 H3          3.3057    1.9840   -0.0188 H         1 <0>         0.1366
     30 H4         -0.9251   -0.5579    0.0082 H         1 <0>         0.1390
     31 H5         -0.1045   -2.6581    1.6177 H         1 <0>         0.1559
     32 H6          0.4907   -5.1892    0.9418 H         1 <0>         0.1605
     33 H7          2.0989   -6.3738   -0.9741 H         1 <0>         0.1431
     34 H8          7.2325   -8.1326   -2.0068 H         1 <0>         0.1466
     35 H9          8.7556   -7.5446   -0.1367 H         1 <0>         0.1367
     36 H10         8.1450   -5.6475    1.3481 H         1 <0>         0.1324
     37 H11         6.0623   -4.4066    0.9327 H         1 <0>         0.1517
@<TRIPOS>BOND
     1    1    6 ar
     2    1    2 ar
     3    1   27 1
     4    2    3 ar
     5    2   28 1
     6    3    4 ar
     7    3   29 1
     8    4    5 ar
     9    4   26 1
    10    5    6 ar
    11    5    7 1
    12    6   30 1
    13    7   11 1
    14    7    8 2
    15    8    9 1
    16    8   31 1
    17    9   10 2
    18    9   32 1
    19   10   11 1
    20   10   12 1
    21   12   13 2
    22   12   33 1
    23   13   14 1
    24   14   18 1
    25   14   15 1
    26   15   16 2
    27   15   20 1
    28   16   17 1
    29   17   18 2
    30   18   19 1
    31   20   25 ar
    32   20   21 ar
    33   21   22 ar
    34   21   34 1
    35   22   23 ar
    36   22   35 1
    37   23   24 ar
    38   23   36 1
    39   24   25 ar
    40   24   37 1
@<TRIPOS>MOLECULE
ZINC40475517
   42    46     0     0     0
SMALL
USER_CHARGES

@<TRIPOS>ATOM
      1 C1         -0.0162    1.3790    0.0098 C.ar      1 <0>        -0.1144
      2 C2          1.1212    1.9846    0.5103 C.ar      1 <0>        -0.1282
      3 C3          2.3274    1.3094    0.4951 C.ar      1 <0>        -0.1137
      4 C4          2.3960    0.0285   -0.0201 C.ar      1 <0>        -0.0854
      5 C5          1.2585   -0.5774   -0.5198 C.ar      1 <0>        -0.0535
      6 C6          0.0526    0.0983   -0.5059 C.ar      1 <0>        -0.1182
      7 C7          3.7112   -0.7071   -0.0376 C.3       1 <0>         0.0770
      8 H1          4.5107    0.0276   -0.1325 H         1 <0>         0.1047
      9 C8          3.7389   -1.5822   -1.2345 C.2       1 <0>        -0.2881
     10 C9          4.1058   -2.8894   -1.3265 C.2       1 <0>         0.1102
     11 N1          4.0661   -3.3957   -2.5619 N.2       1 <0>        -0.5585
     12 C10         3.6688   -2.6837   -3.5933 C.2       1 <0>         0.2810
     13 S1          3.5438   -3.1760   -5.2805 S.3       1 <0>        -0.7164
     14 S2          3.3083   -1.1870   -2.9107 S.3       1 <0>         0.0717
     15 S3          4.5686   -3.8127    0.1149 S.3       1 <0>        -0.0184
     16 C11         4.9060   -2.5296    1.3627 C.3       1 <0>        -0.1094
     17 H2          5.9420   -2.1908    1.3616 H         1 <0>         0.1654
     18 C12         3.8716   -1.4037    1.2608 C.3       1 <0>        -0.1091
     19 H3          4.2326   -0.6432    1.9533 H         1 <0>         0.1264
     20 C13         2.6654   -1.9719    1.9403 C.2       1 <0>         0.5487
     21 O1          1.5067   -1.6798    1.7362 O.2       1 <0>        -0.4138
     22 N2          3.1335   -2.8796    2.8294 N.am      1 <0>        -0.5280
     23 C14         4.4531   -3.1361    2.7029 C.2       1 <0>         0.5541
     24 O2          5.1491   -3.7387    3.4915 O.2       1 <0>        -0.4354
     25 C15         2.3242   -3.4894    3.7984 C.ar      1 <0>         0.1860
     26 C16         0.9741   -3.1753    3.8748 C.ar      1 <0>        -0.1419
     27 C17         0.1792   -3.7779    4.8301 C.ar      1 <0>        -0.0291
     28 C18         0.7269   -4.6934    5.7099 C.ar      1 <0>        -0.0666
     29 C19         2.0714   -5.0079    5.6366 C.ar      1 <0>        -0.0296
     30 C20         2.8701   -4.4127    4.6797 C.ar      1 <0>        -0.1447
     31 N3         -0.1276   -5.3375    6.7326 N.pl3     1 <0>         0.0377
     32 O3         -1.3032   -5.0631    6.7981 O.2       1 <0>        -0.1607
     33 O4          0.3500   -6.1380    7.5024 O.3       1 <0>        -0.1612
     34 H4         -0.9594    1.9048    0.0258 H         1 <0>         0.1164
     35 H5          1.0676    2.9853    0.9129 H         1 <0>         0.1170
     36 H6          3.2161    1.7828    0.8855 H         1 <0>         0.1171
     37 H7          1.3122   -1.5780   -0.9227 H         1 <0>         0.1176
     38 H8         -0.8361   -0.3750   -0.8966 H         1 <0>         0.1181
     39 H9          0.5458   -2.4601    3.1881 H         1 <0>         0.1780
     40 H10        -0.8711   -3.5337    4.8902 H         1 <0>         0.1609
     41 H11         2.4965   -5.7230    6.3253 H         1 <0>         0.1609
     42 H12         3.9192   -4.6624    4.6197 H         1 <0>         0.1755
@<TRIPOS>BOND
     1    1    6 ar
     2    1    2 ar
     3    1   34 1
     4    2    3 ar
     5    2   35 1
     6    3    4 ar
     7    3   36 1
     8    4    5 ar
     9    4    7 1
    10    5    6 ar
    11    5   37 1
    12    6   38 1
    13    7    8 1
    14    7   18 1
    15    7    9 1
    16    9   14 1
    17    9   10 2
    18   10   11 1
    19   10   15 1
    20   11   12 2
    21   12   13 1
    22   12   14 1
    23   15   16 1
    24   16   17 1
    25   16   23 1
    26   16   18 1
    27   18   19 1
    28   18   20 1
    29   20   21 2
    30   20   22 am
    31   22   23 am
    32   22   25 1
    33   23   24 2
    34   25   30 ar
    35   25   26 ar
    36   26   27 ar
    37   26   39 1
    38   27   28 ar
    39   27   40 1
    40   28   29 ar
    41   28   31 1
    42   29   30 ar
    43   29   41 1
    44   30   42 1
    45   31   32 2
    46   31   33 1
@<TRIPOS>MOLECULE
ZINC09463748
   47    50     0     0     0
SMALL
USER_CHARGES

@<TRIPOS>ATOM
      1 C1         -0.9105    0.9124    0.9257 C.3       1 <0>        -0.0795
      2 C2         -1.1014   -0.5613    0.6753 C.2       1 <0>        -0.0034
      3 C3         -0.6818   -1.2253   -0.4136 C.2       1 <0>        -0.0879
      4 C4         -1.0841   -2.6275   -0.2259 C.2       1 <0>        -0.1682
      5 C5         -1.7302   -2.6751    1.0013 C.2       1 <0>         0.0702
      6 N1         -1.7244   -1.4347    1.5243 N.pl3     1 <0>        -0.4009
      7 C6         -2.2814   -1.0864    2.7623 C.ar      1 <0>         0.1310
      8 C7         -1.7429   -1.5975    3.9356 C.ar      1 <0>        -0.0990
      9 C8         -2.2935   -1.2528    5.1543 C.ar      1 <0>        -0.0979
     10 C9         -3.3812   -0.3987    5.2067 C.ar      1 <0>        -0.0325
     11 C10        -3.9200    0.1117    4.0387 C.ar      1 <0>        -0.0974
     12 C11        -3.3690   -0.2251    2.8179 C.ar      1 <0>        -0.0978
     13 Cl1        -4.0711    0.0327    6.7402 Cl        1 <0>        -0.0646
     14 C12        -2.3280   -3.9022    1.6400 C.3       1 <0>        -0.0895
     15 C13        -0.8591   -3.7057   -1.1139 C.2       1 <0>         0.0946
     16 C14        -1.0976   -3.5479   -2.4699 C.2       1 <0>        -0.2818
     17 C15        -0.6803   -4.5700   -3.4519 C.2       1 <0>         0.5417
     18 N2         -0.9434   -4.3519   -4.7509 N.2       1 <0>        -0.6692
     19 C16        -1.5531   -3.2690   -5.1630 C.2       1 <0>         0.6370
     20 O1         -1.7783   -3.1298   -6.4842 O.3       1 <0>        -0.6501
     21 N3         -1.9723   -2.2768   -4.3323 N.am      1 <0>        -0.5396
     22 C17        -1.7840   -2.3563   -2.9977 C.2       1 <0>         0.5615
     23 O2         -2.1646   -1.4699   -2.2554 O.2       1 <0>        -0.4999
     24 C18        -2.6163   -1.1547   -4.8706 C.ar      1 <0>         0.1835
     25 C19        -1.8729   -0.0548   -5.2783 C.ar      1 <0>        -0.0962
     26 C20        -2.5098    1.0499   -5.8085 C.ar      1 <0>        -0.1013
     27 C21        -3.8868    1.0622   -5.9341 C.ar      1 <0>        -0.1155
     28 C22        -4.6309   -0.0319   -5.5289 C.ar      1 <0>        -0.0260
     29 C23        -3.9980   -1.1428   -5.0027 C.ar      1 <0>        -0.0928
     30 Cl2        -6.3594   -0.0125   -5.6882 Cl        1 <0>        -0.0782
     31 O3         -0.1107   -5.5864   -3.0919 O.2       1 <0>        -0.5470
     32 H1          0.0341    1.0733    1.4454 H         1 <0>         0.0651
     33 H2         -0.8967    1.4439   -0.0258 H         1 <0>         0.0798
     34 H3         -1.7307    1.2860    1.5387 H         1 <0>         0.0592
     35 H4         -0.1539   -0.8116   -1.2600 H         1 <0>         0.1385
     36 H5         -0.8943   -2.2644    3.8952 H         1 <0>         0.1398
     37 H6         -1.8753   -1.6504    6.0672 H         1 <0>         0.1417
     38 H7         -4.7690    0.7778    4.0821 H         1 <0>         0.1417
     39 H8         -3.7868    0.1772    1.9069 H         1 <0>         0.1408
     40 H9         -1.5763   -4.3928    2.2584 H         1 <0>         0.0770
     41 H10        -3.1761   -3.6124    2.2603 H         1 <0>         0.0651
     42 H11        -2.6640   -4.5890    0.8631 H         1 <0>         0.0853
     43 H12        -0.5016   -4.6518   -0.7350 H         1 <0>         0.1407
     44 H13        -0.7974   -0.0633   -5.1804 H         1 <0>         0.1269
     45 H14        -1.9317    1.9054   -6.1252 H         1 <0>         0.1339
     46 H15        -4.3826    1.9275   -6.3487 H         1 <0>         0.1317
     47 H16        -4.5783   -1.9985   -4.6906 H         1 <0>         0.1295
@<TRIPOS>BOND
     1    1    2 1
     2    1   32 1
     3    1   33 1
     4    1   34 1
     5    2    6 1
     6    2    3 2
     7    3    4 1
     8    3   35 1
     9    4    5 2
    10    4   15 1
    11    5    6 1
    12    5   14 1
    13    6    7 1
    14    7   12 ar
    15    7    8 ar
    16    8    9 ar
    17    8   36 1
    18    9   10 ar
    19    9   37 1
    20   10   11 ar
    21   10   13 1
    22   11   12 ar
    23   11   38 1
    24   12   39 1
    25   14   40 1
    26   14   41 1
    27   14   42 1
    28   15   16 2
    29   15   43 1
    30   16   22 1
    31   16   17 1
    32   17   18 1
    33   17   31 2
    34   18   19 2
    35   19   20 1
    36   19   21 1
    37   21   22 am
    38   21   24 1
    39   22   23 2
    40   24   29 ar
    41   24   25 ar
    42   25   26 ar
    43   25   44 1
    44   26   27 ar
    45   26   45 1
    46   27   28 ar
    47   27   46 1
    48   28   29 ar
    49   28   30 1
    50   29   47 1
@<TRIPOS>MOLECULE
ZINC65004336
   39    42     0     0     0
SMALL
USER_CHARGES

@<TRIPOS>ATOM
      1 C1         -0.0167    1.3788    0.0096 C.ar      1 <0>        -0.0526
      2 C2          1.1693    2.0881    0.0021 C.ar      1 <0>        -0.1579
      3 C3          2.3812    1.4120   -0.0130 C.ar      1 <0>         0.2741
      4 C4          2.3981    0.0210   -0.0206 C.ar      1 <0>        -0.0609
      5 C5          1.2082   -0.6827   -0.0131 C.ar      1 <0>        -0.0643
      6 C6          0.0021   -0.0041    0.0020 C.ar      1 <0>        -0.1683
      7 Br1        -1.6237   -0.9698    0.0129 Br        1 <0>        -0.0843
      8 F1          3.5756   -0.6412   -0.0358 F         1 <0>        -0.1376
      9 N1          3.5831    2.1276   -0.0211 N.2       1 <0>        -1.0816
     10 S1          5.0282    1.3190   -0.0392 S.o2      1 <0>         2.6439
     11 O1          5.1257    0.6338    1.2018 O.2       1 <0>        -1.0085
     12 O2          5.1015    0.6462   -1.2887 O.2       1 <0>        -1.0109
     13 C7          6.3047    2.5335   -0.0456 C.2       1 <0>        -0.6716
     14 C8          6.9370    3.1123    1.0074 C.2       1 <0>        -0.0436
     15 C9          7.9177    4.0497    0.7694 C.2       1 <0>        -0.1426
     16 C10         8.2229    4.3674   -0.5297 C.2       1 <0>        -0.0946
     17 S2          7.1044    3.3132   -1.4382 S.3       1 <0>         0.1973
     18 C11         9.2175    5.3245   -1.0417 C.2       1 <0>         0.0373
     19 C12        10.0557    6.0982   -0.3000 C.2       1 <0>        -0.0009
     20 N2         10.7953    6.8230   -1.1524 N.2       1 <0>        -0.4744
     21 C13        10.4465    6.5267   -2.3728 C.2       1 <0>         0.2104
     22 O3          9.4780    5.5996   -2.3391 O.3       1 <0>        -0.1928
     23 C14        11.0406    7.1253   -3.6217 C.3       1 <0>        -0.0268
     24 C15        12.5548    7.3757   -3.5248 C.3       1 <0>        -0.1213
     25 C16        12.3050    8.6955   -4.2735 C.3       1 <0>        -0.1395
     26 C17        10.8737    8.6513   -3.7129 C.3       1 <0>        -0.1235
     27 H1         -0.9596    1.9052    0.0260 H         1 <0>         0.1235
     28 H2          1.1532    3.1680    0.0077 H         1 <0>         0.1324
     29 H3          1.2198   -1.7626   -0.0189 H         1 <0>         0.1261
     30 H4          6.6739    2.8412    2.0192 H         1 <0>         0.1526
     31 H5          8.4357    4.5253    1.5891 H         1 <0>         0.1449
     32 H6         10.1146    6.1241    0.7781 H         1 <0>         0.1916
     33 H7         10.7409    6.5984   -4.5276 H         1 <0>         0.1190
     34 H8         12.9101    7.5135   -2.5035 H         1 <0>         0.0981
     35 H9         13.1527    6.6600   -4.0890 H         1 <0>         0.0756
     36 H10        12.8960    9.5301   -3.8963 H         1 <0>         0.0766
     37 H11        12.3524    8.5979   -5.3581 H         1 <0>         0.0853
     38 H12        10.1144    8.9655   -4.4291 H         1 <0>         0.0771
     39 H13        10.7693    9.1379   -2.7431 H         1 <0>         0.0926
@<TRIPOS>BOND
     1    1    6 ar
     2    1    2 ar
     3    1   27 1
     4    2    3 ar
     5    2   28 1
     6    3    4 ar
     7    3    9 1
     8    4    5 ar
     9    4    8 1
    10    5    6 ar
    11    5   29 1
    12    6    7 1
    13    9   10 1
    14   10   11 2
    15   10   12 2
    16   10   13 1
    17   13   17 1
    18   13   14 2
    19   14   15 1
    20   14   30 1
    21   15   16 2
    22   15   31 1
    23   16   17 1
    24   16   18 1
    25   18   22 1
    26   18   19 2
    27   19   20 1
    28   19   32 1
    29   20   21 2
    30   21   22 1
    31   21   23 1
    32   23   26 1
    33   23   24 1
    34   23   33 1
    35   24   25 1
    36   24   34 1
    37   24   35 1
    38   25   26 1
    39   25   36 1
    40   25   37 1
    41   26   38 1
    42   26   39 1
@<TRIPOS>MOLECULE
ZINC09111207
   53    57     0     0     0
SMALL
USER_CHARGES

@<TRIPOS>ATOM
      1 C1         -0.7331    2.0435    1.6916 C.ar      1 <0>        -0.1124
      2 C2          0.4030    2.8300    1.7333 C.ar      1 <0>        -0.1199
      3 C3          1.6167    2.3136    1.3198 C.ar      1 <0>        -0.0988
      4 C4          1.6945    1.0105    0.8651 C.ar      1 <0>        -0.1144
      5 C5          0.5587    0.2237    0.8243 C.ar      1 <0>        -0.0975
      6 C6         -0.6553    0.7406    1.2365 C.ar      1 <0>        -0.1215
      7 C7          3.0176    0.4478    0.4135 C.3       1 <0>         0.1474
      8 N1          3.7010   -0.1682    1.5535 N.pl3     1 <0>        -0.4579
      9 C8          4.6138    0.4513    2.3216 C.2       1 <0>         0.1790
     10 C9          5.0571   -0.4175    3.3065 C.2       1 <0>        -0.2084
     11 C10         4.3258   -1.6836    3.0939 C.ar      1 <0>        -0.0601
     12 C11         3.4904   -1.4623    1.9883 C.ar      1 <0>         0.0850
     13 C12         2.6621   -2.4879    1.5450 C.ar      1 <0>        -0.1205
     14 C13         2.6658   -3.7045    2.1933 C.ar      1 <0>        -0.1141
     15 C14         3.4891   -3.9191    3.2880 C.ar      1 <0>        -0.1394
     16 C15         4.3239   -2.9171    3.7363 C.ar      1 <0>        -0.0797
     17 C16         6.0111   -0.1483    4.3059 C.2       1 <0>         0.1194
     18 C17         7.1991    0.4999    3.9780 C.2       1 <0>        -0.2733
     19 C18         8.0966    0.9522    4.9867 C.2       1 <0>         0.4962
     20 O1          7.8115    0.7602    6.2922 O.3       1 <0>        -0.6489
     21 N2          9.2130    1.5623    4.6276 N.2       1 <0>        -0.6748
     22 C19         9.5278    1.7689    3.3511 C.2       1 <0>         0.6692
     23 O2         10.5738    2.3382    3.0938 O.2       1 <0>        -0.5785
     24 N3          8.7431    1.3769    2.3341 N.am      1 <0>        -0.5817
     25 C20         7.5776    0.7379    2.5749 C.2       1 <0>         0.5666
     26 O3          6.8606    0.3742    1.6610 O.2       1 <0>        -0.5305
     27 C21         9.1569    1.6392    0.9534 C.3       1 <0>         0.1488
     28 C22         9.9709    0.4778    0.4438 C.ar      1 <0>        -0.0994
     29 C23        11.3427    0.4676    0.6142 C.ar      1 <0>        -0.0906
     30 C24        12.0893   -0.5976    0.1467 C.ar      1 <0>        -0.1294
     31 C25        11.4642   -1.6529   -0.4909 C.ar      1 <0>        -0.1217
     32 C26        10.0923   -1.6431   -0.6605 C.ar      1 <0>        -0.1318
     33 C27         9.3452   -0.5799   -0.1892 C.ar      1 <0>        -0.0971
     34 H1         -1.6805    2.4456    2.0189 H         1 <0>         0.1225
     35 H2          0.3422    3.8481    2.0885 H         1 <0>         0.1245
     36 H3          2.5041    2.9283    1.3517 H         1 <0>         0.1235
     37 H4          0.6194   -0.7943    0.4688 H         1 <0>         0.1216
     38 H5         -1.5428    0.1260    1.2043 H         1 <0>         0.1232
     39 H6          2.8485   -0.3035   -0.3580 H         1 <0>         0.0961
     40 H7          3.6350    1.2503    0.0100 H         1 <0>         0.1020
     41 H8          4.9505    1.4691    2.1910 H         1 <0>         0.1683
     42 H9          2.0163   -2.3312    0.6937 H         1 <0>         0.1128
     43 H10         2.0209   -4.4979    1.8454 H         1 <0>         0.1206
     44 H11         3.4820   -4.8768    3.7870 H         1 <0>         0.1206
     45 H12         4.9638   -3.0853    4.5899 H         1 <0>         0.1233
     46 H13         5.8216   -0.4446    5.3271 H         1 <0>         0.1429
     47 H14         8.2738    1.7664    0.3274 H         1 <0>         0.0858
     48 H15         9.7592    2.5471    0.9209 H         1 <0>         0.0962
     49 H16        11.8311    1.2921    1.1123 H         1 <0>         0.1316
     50 H17        13.1612   -0.6053    0.2792 H         1 <0>         0.1188
     51 H18        12.0476   -2.4849   -0.8568 H         1 <0>         0.1160
     52 H19         9.6040   -2.4675   -1.1589 H         1 <0>         0.1161
     53 H20         8.2730   -0.5740   -0.3184 H         1 <0>         0.1243
@<TRIPOS>BOND
     1    1    6 ar
     2    1    2 ar
     3    1   34 1
     4    2    3 ar
     5    2   35 1
     6    3    4 ar
     7    3   36 1
     8    4    5 ar
     9    4    7 1
    10    5    6 ar
    11    5   37 1
    12    6   38 1
    13    7    8 1
    14    7   39 1
    15    7   40 1
    16    8   12 1
    17    8    9 1
    18    9   10 2
    19    9   41 1
    20   10   11 1
    21   10   17 1
    22   11   16 ar
    23   11   12 ar
    24   12   13 ar
    25   13   14 ar
    26   13   42 1
    27   14   15 ar
    28   14   43 1
    29   15   16 ar
    30   15   44 1
    31   16   45 1
    32   17   18 2
    33   17   46 1
    34   18   25 1
    35   18   19 1
    36   19   20 1
    37   19   21 2
    38   21   22 1
    39   22   23 2
    40   22   24 am
    41   24   25 am
    42   24   27 1
    43   25   26 2
    44   27   28 1
    45   27   47 1
    46   27   48 1
    47   28   33 ar
    48   28   29 ar
    49   29   30 ar
    50   29   49 1
    51   30   31 ar
    52   30   50 1
    53   31   32 ar
    54   31   51 1
    55   32   33 ar
    56   32   52 1
    57   33   53 1
@<TRIPOS>MOLECULE
ZINC33619776
   50    54     0     0     0
SMALL
USER_CHARGES
(4E,5S)-1-(4,6-dimethyl-1,3-benzothiazol-2-yl)-4-[hydroxy(phenyl)methylene]-5-(4-pyridyl)pyrrolidine-2,3-dione
@<TRIPOS>ATOM
      1 C1         -6.2722   14.6874   -0.8959 C.3       1 <0>        -0.1096
      2 C2         -5.9139   13.2288   -0.7729 C.ar      1 <0>        -0.0774
      3 C3         -6.9097   12.2630   -0.7370 C.ar      1 <0>        -0.1115
      4 C4         -6.6112   10.9304   -0.6266 C.ar      1 <0>        -0.0336
      5 C5         -5.2680   10.4951   -0.5443 C.ar      1 <0>         0.1103
      6 C6         -4.2807   11.5063   -0.5839 C.ar      1 <0>        -0.1523
      7 C7         -4.5895   12.8391   -0.6952 C.ar      1 <0>        -0.0659
      8 S1         -2.7757   10.5704   -0.4585 S.3       1 <0>         0.0073
      9 C8         -3.5257    8.9508   -0.3646 C.2       1 <0>         0.4113
     10 N1         -4.8064    9.2307   -0.4383 N.2       1 <0>        -0.5302
     11 N2         -2.9124    7.7157   -0.2495 N.am      1 <0>        -0.5027
     12 C9         -1.4667    7.4870   -0.1727 C.3       1 <0>         0.2677
     13 H1         -0.9801    7.9009   -1.0682 H         1 <0>         0.0913
     14 C10        -1.2703    5.9929   -0.0601 C.2       1 <0>        -0.4927
     15 C11        -0.0701    5.3190    0.0294 C.2       1 <0>         0.4066
     16 C12        -0.0565    3.8494    0.1361 C.ar      1 <0>        -0.0791
     17 C13        -0.7090    3.0689   -0.8235 C.ar      1 <0>        -0.0514
     18 C14        -0.6922    1.6944   -0.7165 C.ar      1 <0>        -0.1312
     19 C15        -0.0317    1.0867    0.3373 C.ar      1 <0>        -0.1206
     20 C16         0.6120    1.8525    1.2939 C.ar      1 <0>        -0.1367
     21 C17         0.6086    3.2280    1.1978 C.ar      1 <0>        -0.0878
     22 O1          1.0921    6.0059    0.0192 O.2       1 <0>        -0.6201
     23 C18        -2.5570    5.4288   -0.0650 C.2       1 <0>         0.3828
     24 O2         -2.8169    4.2416    0.0099 O.3       1 <0>        -0.4767
     25 C19        -3.5467    6.5334   -0.1776 C.2       1 <0>         0.4785
     26 O3         -4.7515    6.3873   -0.2099 O.2       1 <0>        -0.4606
     27 C20        -0.8959    8.1755    1.0403 C.ar      1 <0>        -0.0351
     28 C21        -1.6084    8.2261    2.2286 C.ar      1 <0>        -0.1572
     29 C22        -1.0505    8.8617    3.3217 C.ar      1 <0>         0.0907
     30 N3          0.1393    9.4244    3.2401 N.ar      1 <0>        -0.4889
     31 C23         0.8428    9.4005    2.1250 C.ar      1 <0>         0.0912
     32 C24         0.3519    8.7782    0.9928 C.ar      1 <0>        -0.1245
     33 C25        -7.7263    9.9172   -0.5925 C.3       1 <0>        -0.1189
     34 H2         -7.3660   14.7935   -0.9439 H         1 <0>         0.0675
     35 H3         -5.8233   15.0992   -1.8119 H         1 <0>         0.0708
     36 H4         -5.8887   15.2341   -0.0219 H         1 <0>         0.0709
     37 H5         -7.9437   12.5689   -0.7979 H         1 <0>         0.1293
     38 H6         -3.8030   13.5788   -0.7214 H         1 <0>         0.1292
     39 H7         -1.2251    3.5417   -1.6460 H         1 <0>         0.1181
     40 H8         -1.1959    1.0903   -1.4566 H         1 <0>         0.1164
     41 H9         -0.0223    0.0096    0.4159 H         1 <0>         0.1136
     42 H10         1.1218    1.3713    2.1155 H         1 <0>         0.1158
     43 H11         1.1148    3.8240    1.9427 H         1 <0>         0.1182
     44 H12        -2.5852    7.7711    2.3003 H         1 <0>         0.1193
     45 H13        -1.5970    8.9014    4.2524 H         1 <0>         0.1483
     46 H14         1.8138    9.8724    2.0962 H         1 <0>         0.1517
     47 H15         0.9330    8.7614    0.0826 H         1 <0>         0.1373
     48 H16        -7.3010    8.9069   -0.5014 H         1 <0>         0.0831
     49 H17        -8.3126    9.9860   -1.5207 H         1 <0>         0.0687
     50 H18        -8.3791   10.1194    0.2694 H         1 <0>         0.0687
@<TRIPOS>BOND
     1    1    2 1
     2    1   34 1
     3    1   35 1
     4    1   36 1
     5    2    7 ar
     6    2    3 ar
     7    3    4 ar
     8    3   37 1
     9    4    5 ar
    10    4   33 1
    11    5   10 1
    12    5    6 ar
    13    6    7 ar
    14    6    8 1
    15    7   38 1
    16    8    9 1
    17    9   10 2
    18    9   11 1
    19   11   25 am
    20   11   12 1
    21   12   14 1
    22   12   27 1
    23   12   13 1
    24   14   23 2
    25   14   15 1
    26   15   22 2
    27   15   16 1
    28   16   21 ar
    29   16   17 ar
    30   17   18 ar
    31   17   39 1
    32   18   19 ar
    33   18   40 1
    34   19   20 ar
    35   19   41 1
    36   20   21 ar
    37   20   42 1
    38   21   43 1
    39   23   25 1
    40   23   24 1
    41   25   26 2
    42   27   32 ar
    43   27   28 ar
    44   28   29 ar
    45   28   44 1
    46   29   30 ar
    47   29   45 1
    48   30   31 ar
    49   31   32 ar
    50   31   46 1
    51   32   47 1
    52   33   48 1
    53   33   49 1
    54   33   50 1
@<TRIPOS>MOLECULE
ZINC40568446
   46    50     0     0     0
SMALL
USER_CHARGES

@<TRIPOS>ATOM
      1 C1         -0.0167    1.3780    0.0096 C.ar      1 <0>        -0.0324
      2 C2          1.1704    2.0863    0.0021 C.ar      1 <0>        -0.1538
      3 C3          2.3786    1.4112   -0.0131 C.ar      1 <0>         0.0987
      4 C4          2.3967    0.0257   -0.0207 C.ar      1 <0>        -0.1300
      5 C5          1.2079   -0.6802   -0.0132 C.ar      1 <0>        -0.0541
      6 C6          0.0021   -0.0041    0.0020 C.ar      1 <0>        -0.0237
      7 C7         -1.2930   -0.7746    0.0103 C.3       1 <0>         0.1249
      8 H1         -2.1151   -0.0589    0.0220 H         1 <0>         0.0469
      9 C8         -1.3536   -1.5896    1.2857 C.2       1 <0>        -0.3737
     10 C9         -1.4839   -2.9571    1.1799 C.2       1 <0>         0.2189
     11 C10        -1.5512   -3.7850    2.4428 C.3       1 <0>         0.1022
     12 O1         -0.8380   -3.1186    3.4866 O.3       1 <0>        -0.3680
     13 C11        -1.3373   -1.8111    3.7843 C.3       1 <0>         0.0193
     14 C12        -1.2767   -0.9702    2.5316 C.2       1 <0>         0.3701
     15 O2         -1.1614    0.2377    2.6094 O.2       1 <0>        -0.4975
     16 N1         -1.5528   -3.5605   -0.0014 N.2       1 <0>        -0.6304
     17 C13        -1.5106   -2.9673   -1.1710 C.2       1 <0>         0.2570
     18 C14        -1.3781   -1.5759   -1.2724 C.2       1 <0>        -0.3889
     19 C15        -1.3261   -0.9711   -2.4761 C.2       1 <0>         0.3231
     20 C16        -1.4153   -1.7975   -3.7314 C.3       1 <0>         0.1014
     21 C17        -2.8781   -1.8646   -4.2070 C.3       1 <0>        -0.1362
     22 C18        -2.9829   -0.7385   -5.2664 C.3       1 <0>        -0.1181
     23 C19        -1.6131   -0.8163   -5.9859 C.3       1 <0>        -0.1164
     24 C20        -0.6095   -1.1326   -4.8566 C.3       1 <0>        -0.1042
     25 O3         -0.9241   -3.1139   -3.4869 O.3       1 <0>        -0.3596
     26 C21        -1.6059   -3.7899   -2.4349 C.3       1 <0>         0.1003
     27 O4         -1.1953    0.3667   -2.5555 O.3       1 <0>        -0.5958
     28 Br1         4.0460   -0.8989   -0.0421 Br        1 <0>        -0.0564
     29 F1          3.5393    2.1026   -0.0209 F         1 <0>        -0.1387
     30 H2         -0.9593    1.9048    0.0260 H         1 <0>         0.1268
     31 H3          1.1551    3.1662    0.0077 H         1 <0>         0.1322
     32 H4          1.2213   -1.7601   -0.0191 H         1 <0>         0.1259
     33 H5         -2.5926   -3.9130    2.7384 H         1 <0>         0.0706
     34 H6         -1.1021   -4.7615    2.2616 H         1 <0>         0.1155
     35 H7         -2.3698   -1.8835    4.1261 H         1 <0>         0.0747
     36 H8         -0.7244   -1.3541    4.5611 H         1 <0>         0.1134
     37 H9         -3.0888   -2.8341   -4.6582 H         1 <0>         0.0765
     38 H10        -3.5585   -1.6726   -3.3773 H         1 <0>         0.0677
     39 H11        -3.7970   -0.9384   -5.9631 H         1 <0>         0.0636
     40 H12        -3.1129    0.2318   -4.7871 H         1 <0>         0.0740
     41 H13        -1.6167   -1.6149   -6.7277 H         1 <0>         0.0623
     42 H14        -1.3729    0.1387   -6.4532 H         1 <0>         0.0654
     43 H15        -0.1517   -0.2120   -4.4947 H         1 <0>         0.0898
     44 H16         0.1589   -1.8151   -5.2197 H         1 <0>         0.0712
     45 H17        -1.1392   -4.7615   -2.2732 H         1 <0>         0.1133
     46 H18        -2.6538   -3.9280   -2.7014 H         1 <0>         0.0719
@<TRIPOS>BOND
     1    1    6 ar
     2    1    2 ar
     3    1   30 1
     4    2    3 ar
     5    2   31 1
     6    3    4 ar
     7    3   29 1
     8    4    5 ar
     9    4   28 1
    10    5    6 ar
    11    5   32 1
    12    6    7 1
    13    7    8 1
    14    7   18 1
    15    7    9 1
    16    9   14 1
    17    9   10 2
    18   10   11 1
    19   10   16 1
    20   11   12 1
    21   11   33 1
    22   11   34 1
    23   12   13 1
    24   13   14 1
    25   13   35 1
    26   13   36 1
    27   14   15 2
    28   16   17 2
    29   17   26 1
    30   17   18 1
    31   18   19 2
    32   19   20 1
    33   19   27 1
    34   20   24 1
    35   20   21 1
    36   20   25 1
    37   21   22 1
    38   21   37 1
    39   21   38 1
    40   22   23 1
    41   22   39 1
    42   22   40 1
    43   23   24 1
    44   23   41 1
    45   23   42 1
    46   24   43 1
    47   24   44 1
    48   25   26 1
    49   26   45 1
    50   26   46 1
@<TRIPOS>MOLECULE
ZINC59437152
   42    44     0     0     0
SMALL
USER_CHARGES

@<TRIPOS>ATOM
      1 C1         -0.0187    1.5258    0.0104 C.3       1 <0>        -0.1469
      2 C2          0.0021   -0.0041    0.0020 C.3       1 <0>         0.0641
      3 O1          0.6709   -0.4649   -1.1737 O.3       1 <0>        -0.3181
      4 C3          0.7757   -1.7968   -1.3345 C.2       1 <0>         0.4988
      5 O2          0.2621   -2.6287   -0.4099 O.3       1 <0>        -0.6234
      6 C4          1.4140   -2.3130   -2.4551 C.2       1 <0>        -0.4592
      7 C5          1.5534   -3.7579   -2.6752 C.2       1 <0>         0.3277
      8 S1          2.4283   -3.8695   -4.2220 S.3       1 <0>        -0.0884
      9 C6          2.6230   -2.1403   -4.5986 C.2       1 <0>        -0.1661
     10 C7          3.2305   -1.5791   -5.6853 C.2       1 <0>        -0.0011
     11 C8          3.8000   -2.4024   -6.6781 C.2       1 <0>        -0.0037
     12 C9          4.4471   -1.9703   -7.8212 C.2       1 <0>        -0.1450
     13 C10         4.8477   -3.1194   -8.5133 C.2       1 <0>        -0.2346
     14 C11         4.4390   -4.1921   -7.7827 C.2       1 <0>         0.1917
     15 O3          3.8153   -3.7539   -6.6783 O.3       1 <0>        -0.1757
     16 O4          4.6344   -5.4907   -8.1137 O.3       1 <0>        -0.2673
     17 C12         4.1267   -6.4741   -7.2097 C.3       1 <0>         0.0207
     18 C13         1.9755   -1.4607   -3.4774 C.2       1 <0>         0.4270
     19 O5          1.9164   -0.2432   -3.4072 O.2       1 <0>        -0.4868
     20 N1          1.1297   -4.7437   -1.9060 N.2       1 <0>        -0.4840
     21 C14         1.3509   -6.0406   -2.2739 C.ar      1 <0>         0.1543
     22 C15         1.1225   -6.4453   -3.5921 C.ar      1 <0>        -0.1692
     23 C16         1.3480   -7.7560   -3.9564 C.ar      1 <0>        -0.0656
     24 C17         1.7995   -8.6705   -3.0198 C.ar      1 <0>        -0.1266
     25 C18         2.0279   -8.2766   -1.7121 C.ar      1 <0>        -0.0710
     26 C19         1.8122   -6.9678   -1.3351 C.ar      1 <0>        -0.1235
     27 Br1         2.1051  -10.4659   -3.5288 Br        1 <0>        -0.0728
     28 H1          1.0039    1.9031    0.0027 H         1 <0>         0.0616
     29 H2         -0.5459    1.8868   -0.8726 H         1 <0>         0.0616
     30 H3         -0.5289    1.8773    0.9072 H         1 <0>         0.0678
     31 H4          0.5293   -0.3651    0.8851 H         1 <0>         0.0562
     32 H5         -1.0205   -0.3814    0.0098 H         1 <0>         0.0561
     33 H6          3.2748   -0.5045   -5.7842 H         1 <0>         0.1707
     34 H7          4.6115   -0.9460   -8.1216 H         1 <0>         0.1600
     35 H8          5.3809   -3.1489   -9.4521 H         1 <0>         0.1554
     36 H9          4.3501   -7.4697   -7.5930 H         1 <0>         0.1066
     37 H10         4.5953   -6.3469   -6.2338 H         1 <0>         0.0648
     38 H11         3.0475   -6.3558   -7.1127 H         1 <0>         0.0642
     39 H12         0.7700   -5.7331   -4.3236 H         1 <0>         0.1329
     40 H13         1.1716   -8.0702   -4.9745 H         1 <0>         0.1252
     41 H14         2.3801   -8.9951   -0.9868 H         1 <0>         0.1287
     42 H15         1.9951   -6.6609   -0.3159 H         1 <0>         0.1330
@<TRIPOS>BOND
     1    1    2 1
     2    1   28 1
     3    1   29 1
     4    1   30 1
     5    2    3 1
     6    2   31 1
     7    2   32 1
     8    3    4 1
     9    4    5 1
    10    4    6 2
    11    6    7 1
    12    6   18 1
    13    7   20 2
    14    7    8 1
    15    8    9 1
    16    9   10 2
    17    9   18 1
    18   10   11 1
    19   10   33 1
    20   11   15 1
    21   11   12 2
    22   12   13 1
    23   12   34 1
    24   13   14 2
    25   13   35 1
    26   14   15 1
    27   14   16 1
    28   16   17 1
    29   17   36 1
    30   17   37 1
    31   17   38 1
    32   18   19 2
    33   20   21 1
    34   21   26 ar
    35   21   22 ar
    36   22   23 ar
    37   22   39 1
    38   23   24 ar
    39   23   40 1
    40   24   25 ar
    41   24   27 1
    42   25   26 ar
    43   25   41 1
    44   26   42 1
@<TRIPOS>MOLECULE
ZINC13122881
   38    40     0     0     0
SMALL
USER_CHARGES

@<TRIPOS>ATOM
      1 C1         -0.6762    0.1394   -2.3503 C.2       1 <0>        -0.0432
      2 C2          0.0143   -0.0656   -3.5522 C.2       1 <0>        -0.2949
      3 C3          1.0867   -0.8910   -3.5890 C.2       1 <0>         0.1420
      4 N1          1.5084   -1.5303   -2.4679 N.2       1 <0>        -0.5840
      5 C4          0.8558   -1.3508   -1.2803 C.2       1 <0>         0.4426
      6 C5         -0.2597   -0.4988   -1.2186 C.2       1 <0>        -0.2340
      7 N2          1.2765   -1.9832   -0.1832 N.2       1 <0>        -0.7724
      8 C6          2.4075   -2.7064   -0.2172 C.2       1 <0>         0.6142
      9 C7          2.3435   -4.1742   -0.4222 C.ar      1 <0>        -0.0550
     10 C8          3.5156   -4.9278   -0.4520 C.ar      1 <0>        -0.0502
     11 C9          3.4508   -6.2927   -0.6425 C.ar      1 <0>        -0.1318
     12 C10         2.2239   -6.9140   -0.8039 C.ar      1 <0>        -0.0206
     13 C11         1.0567   -6.1698   -0.7750 C.ar      1 <0>        -0.1284
     14 C12         1.1107   -4.8050   -0.5798 C.ar      1 <0>        -0.0488
     15 Cl1         2.1490   -8.6317   -1.0438 Cl        1 <0>        -0.0836
     16 N3          3.5708   -2.1139   -0.0687 N.2       1 <0>        -1.0236
     17 S1          3.6426   -0.4747    0.1553 S.o2      1 <0>         2.6393
     18 O1          3.1461    0.1201   -1.0360 O.2       1 <0>        -0.9671
     19 O2          3.0741   -0.2139    1.4312 O.2       1 <0>        -0.9847
     20 C13         5.3461   -0.0378    0.2641 C.ar      1 <0>        -0.6355
     21 C14         5.9809   -0.0326    1.4922 C.ar      1 <0>        -0.0103
     22 C15         7.3171    0.3100    1.5782 C.ar      1 <0>        -0.1358
     23 C16         8.0194    0.6477    0.4350 C.ar      1 <0>         0.0071
     24 C17         7.3836    0.6422   -0.7937 C.ar      1 <0>        -0.1352
     25 C18         6.0487    0.2940   -0.8792 C.ar      1 <0>        -0.0053
     26 Cl2         9.6976    1.0787    0.5424 Cl        1 <0>        -0.0690
     27 H1         -1.5292    0.8012   -2.3190 H         1 <0>         0.1048
     28 H2         -0.3102    0.4361   -4.4519 H         1 <0>         0.1002
     29 H3          1.6121   -1.0428   -4.5203 H         1 <0>         0.1235
     30 H4         -0.7817   -0.3503   -0.2849 H         1 <0>         0.1104
     31 H5          4.4730   -4.4440   -0.3265 H         1 <0>         0.1465
     32 H6          4.3585   -6.8775   -0.6661 H         1 <0>         0.1319
     33 H7          0.1022   -6.6589   -0.9018 H         1 <0>         0.1323
     34 H8          0.1994   -4.2259   -0.5534 H         1 <0>         0.1416
     35 H9          5.4325   -0.2959    2.3845 H         1 <0>         0.1469
     36 H10         7.8129    0.3144    2.5377 H         1 <0>         0.1402
     37 H11         7.9312    0.9061   -1.6864 H         1 <0>         0.1404
     38 H12         5.5535    0.2851   -1.8389 H         1 <0>         0.1493
@<TRIPOS>BOND
     1    1    6 2
     2    1    2 1
     3    1   27 1
     4    2    3 2
     5    2   28 1
     6    3    4 1
     7    3   29 1
     8    4    5 1
     9    5    6 1
    10    5    7 2
    11    6   30 1
    12    7    8 1
    13    8    9 1
    14    8   16 2
    15    9   14 ar
    16    9   10 ar
    17   10   11 ar
    18   10   31 1
    19   11   12 ar
    20   11   32 1
    21   12   13 ar
    22   12   15 1
    23   13   14 ar
    24   13   33 1
    25   14   34 1
    26   16   17 1
    27   17   18 2
    28   17   19 2
    29   17   20 1
    30   20   25 ar
    31   20   21 ar
    32   21   22 ar
    33   21   35 1
    34   22   23 ar
    35   22   36 1
    36   23   24 ar
    37   23   26 1
    38   24   25 ar
    39   24   37 1
    40   25   38 1
@<TRIPOS>MOLECULE
ZINC13397788
   52    55     0     0     0
SMALL
USER_CHARGES
2-[[3-(2,5-dimethylphenyl)-5-ethyl-6-methyl-4-oxo-thieno[2,3-d]pyrimidin-2-yl]sulfanylmethyl]furan-3-carboxylic acid
@<TRIPOS>ATOM
      1 C1         -4.7171   11.8893    1.9585 C.3       1 <0>        -0.1350
      2 C2         -5.7127   10.7768    1.6237 C.3       1 <0>        -0.0758
      3 C3         -5.1008    9.8431    0.6114 C.2       1 <0>        -0.0431
      4 C4         -5.2581   10.0685   -0.7012 C.2       1 <0>        -0.1779
      5 S1         -4.3709    8.7222   -1.4619 S.3       1 <0>         0.1275
      6 C5         -3.8140    7.8950    0.0059 C.2       1 <0>         0.1386
      7 C6         -4.3334    8.6886    1.0463 C.2       1 <0>        -0.2669
      8 C7         -4.0344    8.2484    2.3739 C.2       1 <0>         0.5653
      9 O1         -4.4421    8.8733    3.3380 O.2       1 <0>        -0.5124
     10 N1         -3.2969    7.1360    2.5452 N.am      1 <0>        -0.4679
     11 C8         -2.8307    6.4233    1.4760 C.2       1 <0>         0.3851
     12 N2         -3.0874    6.8096    0.2428 N.2       1 <0>        -0.5007
     13 S2         -1.8678    4.9734    1.7505 S.3       1 <0>         0.0674
     14 C9         -1.5498    4.4786    0.0388 C.3       1 <0>        -0.0178
     15 C10        -0.7171    3.2226    0.0254 C.2       1 <0>        -0.0091
     16 C11        -1.1985    1.9453    0.0175 C.2       1 <0>        -0.1587
     17 C12        -0.0126    1.0758    0.0080 C.2       1 <0>        -0.1767
     18 C13         1.0474    1.8982    0.0023 C.2       1 <0>        -0.0510
     19 O2          0.6180    3.1698    0.0127 O.3       1 <0>        -0.1847
     20 C14        -2.6098    1.5259    0.0209 C.2       1 <0>         0.5125
     21 O3         -3.4922    2.3616    0.0285 O.co2     1 <0>        -0.6218
     22 C15        -3.0010    6.7004    3.8436 C.ar      1 <0>         0.0936
     23 C16        -1.8494    7.1434    4.4806 C.ar      1 <0>        -0.0838
     24 C17        -1.5632    6.7164    5.7623 C.ar      1 <0>        -0.0878
     25 C18        -2.4166    5.8399    6.4074 C.ar      1 <0>        -0.0949
     26 C19        -3.5613    5.3929    5.7738 C.ar      1 <0>        -0.1090
     27 C20        -3.8557    5.8205    4.4937 C.ar      1 <0>        -0.0483
     28 C21        -5.1031    5.3321    3.8035 C.3       1 <0>        -0.1240
     29 C22        -0.3165    7.2012    6.4565 C.3       1 <0>        -0.1111
     30 C23        -6.0063   11.1911   -1.3727 C.3       1 <0>        -0.0615
     31 H1         -3.8081   11.4514    2.3710 H         1 <0>         0.0530
     32 H2         -4.4742   12.4444    1.0524 H         1 <0>         0.0502
     33 H3         -5.1596   12.5647    2.6907 H         1 <0>         0.0556
     34 H4         -6.6217   11.2147    1.2113 H         1 <0>         0.0691
     35 H5         -5.9555   10.2218    2.5298 H         1 <0>         0.0871
     36 H6         -1.0134    5.2756   -0.4762 H         1 <0>         0.1083
     37 H7         -2.4969    4.2920   -0.4675 H         1 <0>         0.1507
     38 H8          0.0021   -0.0041    0.0020 H         1 <0>         0.1542
     39 H9          2.0814    1.5866   -0.0093 H         1 <0>         0.2022
     40 H10        -1.1803    7.8244    3.9757 H         1 <0>         0.1254
     41 H11        -2.1886    5.5041    7.4082 H         1 <0>         0.1297
     42 H12        -4.2258    4.7084    6.2801 H         1 <0>         0.1341
     43 H13        -4.8791    4.4194    3.2512 H         1 <0>         0.0896
     44 H14        -5.8732    5.1270    4.5471 H         1 <0>         0.0757
     45 H15        -5.4593    6.0965    3.1129 H         1 <0>         0.0577
     46 H16         0.5083    6.5232    6.2374 H         1 <0>         0.0736
     47 H17        -0.0687    8.2015    6.1016 H         1 <0>         0.0656
     48 H18        -0.4875    7.2294    7.5326 H         1 <0>         0.0685
     49 H19        -5.3302   12.0296   -1.5397 H         1 <0>         0.0760
     50 H20        -6.3991   10.8452   -2.3288 H         1 <0>         0.0729
     51 H21        -6.8308   11.5106   -0.7353 H         1 <0>         0.0807
     52 O4         -2.9233    0.2151    0.0155 O.co2     1 <0>        -0.7497
@<TRIPOS>BOND
     1    1    2 1
     2    1   31 1
     3    1   32 1
     4    1   33 1
     5    2    3 1
     6    2   34 1
     7    2   35 1
     8    3    7 1
     9    3    4 2
    10    4    5 1
    11    4   30 1
    12    5    6 1
    13    6   12 1
    14    6    7 2
    15    7    8 1
    16    8    9 2
    17    8   10 am
    18   10   11 1
    19   10   22 1
    20   11   12 2
    21   11   13 1
    22   13   14 1
    23   14   15 1
    24   14   36 1
    25   14   37 1
    26   15   19 1
    27   15   16 2
    28   16   17 1
    29   16   20 1
    30   17   18 2
    31   17   38 1
    32   18   19 1
    33   18   39 1
    34   20   21 2
    35   20   52 1
    36   22   27 ar
    37   22   23 ar
    38   23   24 ar
    39   23   40 1
    40   24   25 ar
    41   24   29 1
    42   25   26 ar
    43   25   41 1
    44   26   27 ar
    45   26   42 1
    46   27   28 1
    47   28   43 1
    48   28   44 1
    49   28   45 1
    50   29   46 1
    51   29   47 1
    52   29   48 1
    53   30   49 1
    54   30   50 1
    55   30   51 1
@<TRIPOS>MOLECULE
ZINC21969460
   42    44     0     0     0
SMALL
USER_CHARGES
2-(4-bromophenyl)-4-methyl-6-(m-tolylmethylsulfanyl)pyrimidine-5-carboxylic acid
@<TRIPOS>ATOM
      1 C1         -2.5139    0.9796    0.0192 C.3       1 <0>        -0.1159
      2 C2         -1.2192    1.7508    0.0173 C.ar      1 <0>        -0.0871
      3 C3         -0.0126    1.0758    0.0080 C.ar      1 <0>        -0.1193
      4 C4          1.1748    1.7831    0.0004 C.ar      1 <0>        -0.1157
      5 C5          1.1561    3.1655    0.0076 C.ar      1 <0>        -0.1075
      6 C6         -0.0501    3.8402    0.0223 C.ar      1 <0>        -0.0668
      7 C7         -1.2379    3.1327    0.0299 C.ar      1 <0>        -0.1033
      8 C8         -0.0705    5.3471    0.0297 C.3       1 <0>        -0.0828
      9 S1         -0.0950    5.9584   -1.6738 S.3       1 <0>         0.0121
     10 C9         -0.1158    7.6948   -1.3754 C.ar      1 <0>         0.1597
     11 C10        -0.1326    8.6098   -2.4524 C.ar      1 <0>        -0.1609
     12 C11        -0.1538    9.9774   -2.1567 C.ar      1 <0>         0.1980
     13 N1         -0.1471   10.3612   -0.8937 N.ar      1 <0>        -0.5149
     14 C12        -0.1257    9.4734    0.0940 C.ar      1 <0>         0.3388
     15 N2         -0.1105    8.1679   -0.1340 N.ar      1 <0>        -0.5200
     16 C13        -0.1190    9.9575    1.4943 C.ar      1 <0>        -0.0076
     17 C14        -0.1288   11.3263    1.7616 C.ar      1 <0>        -0.0699
     18 C15        -0.1264   11.7715    3.0674 C.ar      1 <0>        -0.0995
     19 C16        -0.1051   10.8623    4.1113 C.ar      1 <0>        -0.0812
     20 C17        -0.0904    9.5025    3.8517 C.ar      1 <0>        -0.0997
     21 C18        -0.0970    9.0462    2.5498 C.ar      1 <0>        -0.0725
     22 Br1        -0.0952   11.4803    5.8985 Br        1 <0>        -0.0570
     23 C19        -0.1777   10.9981   -3.2651 C.3       1 <0>        -0.1035
     24 C20        -0.1336    8.1375   -3.8458 C.2       1 <0>         0.5058
     25 O1         -1.1866    7.9293   -4.4161 O.co2     1 <0>        -0.6121
     26 O2          1.0331    7.9356   -4.4898 O.co2     1 <0>        -0.7328
     27 H1         -2.2982   -0.0990    0.0080 H         1 <0>         0.0640
     28 H2         -3.1004    1.2456   -0.8726 H         1 <0>         0.0712
     29 H3         -3.0881    1.2293    0.9236 H         1 <0>         0.0685
     30 H4          0.0021   -0.0041    0.0020 H         1 <0>         0.1205
     31 H5          2.1173    1.2559   -0.0114 H         1 <0>         0.1232
     32 H6          2.0839    3.7182    0.0014 H         1 <0>         0.1248
     33 H7         -2.1804    3.6599    0.0410 H         1 <0>         0.1242
     34 H8         -0.9685    5.6990    0.5586 H         1 <0>         0.1003
     35 H9          0.8275    5.7235    0.5415 H         1 <0>         0.1010
     36 H10        -0.1413   12.0363    0.9480 H         1 <0>         0.1470
     37 H11        -0.1374   12.8311    3.2756 H         1 <0>         0.1359
     38 H12        -0.0734    8.7977    4.6698 H         1 <0>         0.1353
     39 H13        -0.0849    7.9852    2.3484 H         1 <0>         0.1432
     40 H14        -0.1921   12.0092   -2.8322 H         1 <0>         0.0782
     41 H15        -1.0772   10.8499   -3.8806 H         1 <0>         0.0874
     42 H16         0.7188   10.8801   -3.8915 H         1 <0>         0.0909
@<TRIPOS>BOND
     1    1    2 1
     2    1   27 1
     3    1   28 1
     4    1   29 1
     5    2    7 ar
     6    2    3 ar
     7    3    4 ar
     8    3   30 1
     9    4    5 ar
    10    4   31 1
    11    5    6 ar
    12    5   32 1
    13    6    7 ar
    14    6    8 1
    15    7   33 1
    16    8    9 1
    17    8   34 1
    18    8   35 1
    19    9   10 1
    20   10   15 ar
    21   10   11 ar
    22   11   12 ar
    23   11   24 1
    24   12   13 ar
    25   12   23 1
    26   13   14 ar
    27   14   15 ar
    28   14   16 1
    29   16   21 ar
    30   16   17 ar
    31   17   18 ar
    32   17   36 1
    33   18   19 ar
    34   18   37 1
    35   19   20 ar
    36   19   22 1
    37   20   21 ar
    38   20   38 1
    39   21   39 1
    40   23   40 1
    41   23   41 1
    42   23   42 1
    43   24   25 2
    44   24   26 1
@<TRIPOS>MOLECULE
ZINC09506869
   48    52     0     0     0
SMALL
USER_CHARGES

@<TRIPOS>ATOM
      1 C1         -0.5608    1.6615   -0.3993 C.3       1 <0>        -0.1480
      2 C2         -0.7184    0.1521   -0.5932 C.3       1 <0>        -0.0777
      3 C3          0.1230   -0.2950   -1.7607 C.ar      1 <0>        -0.0832
      4 C4         -0.4071   -0.3062   -3.0431 C.ar      1 <0>        -0.1035
      5 C5          0.3361   -0.7080   -4.1218 C.ar      1 <0>        -0.0725
      6 C6          1.6773   -1.1269   -3.9595 C.ar      1 <0>         0.1158
      7 C7          2.1835   -1.1018   -2.6398 C.ar      1 <0>        -0.1732
      8 C8          1.4328   -0.6927   -1.5660 C.ar      1 <0>        -0.0528
      9 S1          3.8478   -1.6827   -2.8621 S.3       1 <0>         0.0496
     10 C9          3.7700   -1.9145   -4.6326 C.2       1 <0>         0.4132
     11 N1          2.5395   -1.5491   -4.9089 N.2       1 <0>        -0.5476
     12 N2          4.7557   -2.3645   -5.4931 N.am      1 <0>        -0.5064
     13 C10         4.6260   -2.5267   -6.9460 C.3       1 <0>         0.3122
     14 H1          3.8418   -3.2485   -7.1742 H         1 <0>         0.1088
     15 C11         5.9616   -3.0394   -7.4323 C.2       1 <0>        -0.4961
     16 C12         6.3259   -3.3556   -8.8184 C.2       1 <0>         0.5473
     17 C13         5.6615   -4.4591   -9.5171 C.2       1 <0>        -0.2294
     18 C14         5.8963   -4.9553  -10.7935 C.2       1 <0>        -0.1032
     19 C15         5.1047   -6.0092  -11.1777 C.2       1 <0>        -0.1795
     20 C16         4.1724   -6.4841  -10.3127 C.2       1 <0>        -0.2551
     21 S2          4.3467   -5.5199   -8.9480 S.3       1 <0>         0.2197
     22 O1          7.1809   -2.7006   -9.3882 O.2       1 <0>        -0.4539
     23 C17         6.7571   -3.1499   -6.3434 C.2       1 <0>         0.2813
     24 O2          8.0415   -3.5779   -6.3509 O.3       1 <0>        -0.6263
     25 C18         6.0048   -2.7253   -5.1470 C.2       1 <0>         0.5179
     26 O3          6.4474   -2.7068   -4.0155 O.2       1 <0>        -0.4796
     27 C19         4.3142   -1.2004   -7.5899 C.2       1 <0>         0.0097
     28 C20         3.4226   -0.9949   -8.5759 C.2       1 <0>        -0.1992
     29 C21         3.4526    0.3868   -8.8738 C.2       1 <0>        -0.2086
     30 C22         4.3608    0.9431   -8.0522 C.2       1 <0>        -0.0227
     31 O4          4.8753   -0.0221   -7.2728 O.3       1 <0>        -0.1612
     32 C23         4.7336    2.4026   -8.0095 C.3       1 <0>        -0.0694
     33 H2          0.4856    1.8955   -0.2037 H         1 <0>         0.0561
     34 H3         -0.8865    2.1796   -1.3013 H         1 <0>         0.0563
     35 H4         -1.1694    1.9849    0.4452 H         1 <0>         0.0567
     36 H5         -0.3928   -0.3660    0.3088 H         1 <0>         0.0721
     37 H6         -1.7649   -0.0818   -0.7888 H         1 <0>         0.0735
     38 H7         -1.4291    0.0086   -3.1943 H         1 <0>         0.1279
     39 H8         -0.1071   -0.7051   -5.1066 H         1 <0>         0.1299
     40 H9          1.8613   -0.6853   -0.5746 H         1 <0>         0.1279
     41 H10         6.6526   -4.5384  -11.4420 H         1 <0>         0.1436
     42 H11         5.2219   -6.4541  -12.1548 H         1 <0>         0.1287
     43 H12         3.4802   -7.2990  -10.4651 H         1 <0>         0.1813
     44 H13         2.8030   -1.7421   -9.0494 H         1 <0>         0.1443
     45 H14         2.8602    0.8977   -9.6185 H         1 <0>         0.1425
     46 H15         4.0889    2.9217   -7.3004 H         1 <0>         0.0745
     47 H16         5.7729    2.5031   -7.6966 H         1 <0>         0.0737
     48 H17         4.6088    2.8386   -9.0007 H         1 <0>         0.0845
@<TRIPOS>BOND
     1    1    2 1
     2    1   33 1
     3    1   34 1
     4    1   35 1
     5    2    3 1
     6    2   36 1
     7    2   37 1
     8    3    8 ar
     9    3    4 ar
    10    4    5 ar
    11    4   38 1
    12    5    6 ar
    13    5   39 1
    14    6   11 1
    15    6    7 ar
    16    7    8 ar
    17    7    9 1
    18    8   40 1
    19    9   10 1
    20   10   11 2
    21   10   12 1
    22   12   25 am
    23   12   13 1
    24   13   15 1
    25   13   27 1
    26   13   14 1
    27   15   23 2
    28   15   16 1
    29   16   22 2
    30   16   17 1
    31   17   21 1
    32   17   18 2
    33   18   19 1
    34   18   41 1
    35   19   20 2
    36   19   42 1
    37   20   21 1
    38   20   43 1
    39   23   25 1
    40   23   24 1
    41   25   26 2
    42   27   31 1
    43   27   28 2
    44   28   29 1
    45   28   44 1
    46   29   30 2
    47   29   45 1
    48   30   31 1
    49   30   32 1
    50   32   46 1
    51   32   47 1
    52   32   48 1
@<TRIPOS>MOLECULE
ZINC45865999
   44    47     0     0     0
SMALL
USER_CHARGES

@<TRIPOS>ATOM
      1 C1          0.3802    0.7987   -0.8770 C.ar      1 <0>        -0.1256
      2 C2          1.6445    1.3169   -1.0886 C.ar      1 <0>        -0.1078
      3 C3          2.7516    0.4942   -1.0052 C.ar      1 <0>        -0.1265
      4 C4          2.5948   -0.8485   -0.7095 C.ar      1 <0>        -0.0334
      5 C5          1.3297   -1.3663   -0.4975 C.ar      1 <0>        -0.0967
      6 C6          0.2229   -0.5424   -0.5817 C.ar      1 <0>        -0.0677
      7 C7          1.1580   -2.8285   -0.1759 C.3       1 <0>         0.1661
      8 N1          1.4480   -3.0539    1.2423 N.am      1 <0>        -0.5694
      9 C8          2.6590   -3.3475    1.7646 C.2       1 <0>         0.5024
     10 O1          3.7097   -3.4761    1.1633 O.2       1 <0>        -0.4765
     11 C9          2.4393   -3.4789    3.2168 C.2       1 <0>         0.0182
     12 C10         3.3822   -3.7729    4.1746 C.2       1 <0>        -0.0721
     13 C11         4.8017   -3.8280    3.8131 C.ar      1 <0>        -0.0783
     14 C12         5.3353   -2.8956    2.9129 C.ar      1 <0>        -0.0197
     15 C13         6.6689   -2.9522    2.5777 C.ar      1 <0>        -0.1500
     16 C14         7.4864   -3.9320    3.1299 C.ar      1 <0>         0.1251
     17 C15         6.9629   -4.8597    4.0235 C.ar      1 <0>        -0.2161
     18 C16         5.6321   -4.8098    4.3708 C.ar      1 <0>        -0.0670
     19 O2          8.8010   -3.9833    2.7948 O.3       1 <0>        -0.3160
     20 C17         9.5845   -5.0149    3.3981 C.3       1 <0>         0.1397
     21 C18        11.0071   -4.9152    2.9109 C.2       1 <0>         0.0491
     22 C19        11.3915   -3.9519    2.0349 C.2       1 <0>        -0.1893
     23 S1         13.1236   -4.3457    1.8521 S.3       1 <0>         0.0993
     24 C20        13.1705   -5.6691    2.8910 C.2       1 <0>         0.0306
     25 N2         11.9362   -5.7559    3.3201 N.2       1 <0>        -0.5090
     26 N3          1.1069   -3.2482    3.4161 N.2       1 <0>        -0.5586
     27 C21         0.5373   -2.9970    2.2666 C.2       1 <0>         0.5042
     28 S2         -1.1750   -2.6368    2.0597 S.3       1 <0>        -0.7634
     29 Cl1         3.9851   -1.8828   -0.6052 Cl        1 <0>        -0.0348
     30 H1         -0.4844    1.4430   -0.9382 H         1 <0>         0.1262
     31 H2          1.7668    2.3649   -1.3194 H         1 <0>         0.1256
     32 H3          3.7391    0.8989   -1.1712 H         1 <0>         0.1269
     33 H4         -0.7649   -0.9466   -0.4166 H         1 <0>         0.1448
     34 H5          0.1324   -3.1295   -0.3894 H         1 <0>         0.1075
     35 H6          1.8438   -3.4175   -0.7851 H         1 <0>         0.0897
     36 H7          3.0765   -3.9630    5.1929 H         1 <0>         0.1351
     37 H8          4.7010   -2.1345    2.4829 H         1 <0>         0.1275
     38 H9          7.0811   -2.2342    1.8842 H         1 <0>         0.1240
     39 H10         7.6028   -5.6187    4.4488 H         1 <0>         0.1238
     40 H11         5.2276   -5.5281    5.0684 H         1 <0>         0.1251
     41 H12         9.5627   -4.9008    4.4819 H         1 <0>         0.0816
     42 H13         9.1749   -5.9879    3.1270 H         1 <0>         0.0814
     43 H14        10.8108   -3.1655    1.5759 H         1 <0>         0.2034
     44 H15        14.0147   -6.2928    3.1453 H         1 <0>         0.2205
@<TRIPOS>BOND
     1    1    6 ar
     2    1    2 ar
     3    1   30 1
     4    2    3 ar
     5    2   31 1
     6    3    4 ar
     7    3   32 1
     8    4    5 ar
     9    4   29 1
    10    5    6 ar
    11    5    7 1
    12    6   33 1
    13    7    8 1
    14    7   34 1
    15    7   35 1
    16    8   27 1
    17    8    9 am
    18    9   10 2
    19    9   11 1
    20   11   12 2
    21   11   26 1
    22   12   13 1
    23   12   36 1
    24   13   18 ar
    25   13   14 ar
    26   14   15 ar
    27   14   37 1
    28   15   16 ar
    29   15   38 1
    30   16   17 ar
    31   16   19 1
    32   17   18 ar
    33   17   39 1
    34   18   40 1
    35   19   20 1
    36   20   21 1
    37   20   41 1
    38   20   42 1
    39   21   25 1
    40   21   22 2
    41   22   23 1
    42   22   43 1
    43   23   24 1
    44   24   25 2
    45   24   44 1
    46   26   27 2
    47   27   28 1
@<TRIPOS>MOLECULE
ZINC60370903
   40    44     0     0     0
SMALL
USER_CHARGES

@<TRIPOS>ATOM
      1 C1         -0.0145    1.3672   -0.2435 C.ar      1 <0>        -0.1223
      2 C2          1.1687    2.0815   -0.1851 C.ar      1 <0>        -0.1236
      3 C3          2.3788    1.4179   -0.1792 C.ar      1 <0>        -0.0894
      4 C4          2.4072    0.0255   -0.2319 C.ar      1 <0>        -0.0130
      5 C5          1.2120   -0.6889   -0.2901 C.ar      1 <0>        -0.1085
      6 C6          0.0077   -0.0149   -0.2959 C.ar      1 <0>        -0.1211
      7 C7          3.7049   -0.6934   -0.2264 C.2       1 <0>         0.0875
      8 C8          3.7371   -2.0650   -0.2833 C.2       1 <0>        -0.2242
      9 S1          5.5009   -2.3573   -0.2477 S.3       1 <0>         0.1142
     10 C9          6.0084   -0.6454   -0.1617 C.2       1 <0>         0.1335
     11 N1          4.8366   -0.0214   -0.1723 N.2       1 <0>        -0.4893
     12 C10         7.3591   -0.0806   -0.1011 C.2       1 <0>        -0.0422
     13 C11         8.4265   -0.8965    0.0208 C.2       1 <0>         0.0595
     14 C12         8.2419   -2.3562    0.0086 C.ar      1 <0>         0.3699
     15 N2          7.9645   -2.9911    1.1472 N.ar      1 <0>        -0.5731
     16 C13         7.7888   -4.2972    1.1948 C.ar      1 <0>         0.4789
     17 O1          7.5076   -4.9062    2.3717 O.3       1 <0>        -0.6342
     18 C14         7.8965   -5.0599    0.0014 C.ar      1 <0>        -0.2826
     19 C15         7.7459   -6.4975   -0.1980 C.2       1 <0>         0.0355
     20 C16         7.8962   -7.0016   -1.4481 C.2       1 <0>        -0.2016
     21 S2          8.2515   -5.5625   -2.4380 S.3       1 <0>         0.0565
     22 C17         8.1921   -4.3256   -1.1687 C.ar      1 <0>         0.1582
     23 N3          8.3494   -3.0194   -1.1395 N.ar      1 <0>        -0.5404
     24 C18         7.4362   -7.3874    0.9405 C.2       1 <0>        -0.0750
     25 C19         6.4653   -8.3473    1.0461 C.2       1 <0>        -0.1742
     26 C20         6.3657   -9.0617    2.2216 C.2       1 <0>        -0.1606
     27 C21         7.2285   -8.7932    3.2335 C.2       1 <0>        -0.2293
     28 S3          8.2353   -7.4960    2.5333 S.3       1 <0>         0.1607
     29 Cl1        10.0179   -0.2242    0.1919 Cl        1 <0>        -0.0319
     30 H1         -0.9593    1.8905   -0.2437 H         1 <0>         0.1199
     31 H2          1.1455    3.1605   -0.1443 H         1 <0>         0.1224
     32 H3          3.3019    1.9766   -0.1343 H         1 <0>         0.1330
     33 H4          1.2282   -1.7680   -0.3314 H         1 <0>         0.1231
     34 H5         -0.9190   -0.5675   -0.3415 H         1 <0>         0.1229
     35 H6          2.9223   -2.7719   -0.3350 H         1 <0>         0.1927
     36 H7          7.5002    0.9888   -0.1540 H         1 <0>         0.1675
     37 H8          7.8190   -8.0303   -1.7678 H         1 <0>         0.1845
     38 H9          5.7907   -8.5410    0.2252 H         1 <0>         0.1227
     39 H10         5.6101   -9.8249    2.3353 H         1 <0>         0.1197
     40 H11         7.2925   -9.2499    4.2101 H         1 <0>         0.1737
@<TRIPOS>BOND
     1    1    6 ar
     2    1    2 ar
     3    1   30 1
     4    2    3 ar
     5    2   31 1
     6    3    4 ar
     7    3   32 1
     8    4    5 ar
     9    4    7 1
    10    5    6 ar
    11    5   33 1
    12    6   34 1
    13    7   11 1
    14    7    8 2
    15    8    9 1
    16    8   35 1
    17    9   10 1
    18   10   11 2
    19   10   12 1
    20   12   13 2
    21   12   36 1
    22   13   14 1
    23   13   29 1
    24   14   23 ar
    25   14   15 ar
    26   15   16 ar
    27   16   17 1
    28   16   18 ar
    29   18   22 ar
    30   18   19 1
    31   19   20 2
    32   19   24 1
    33   20   21 1
    34   20   37 1
    35   21   22 1
    36   22   23 ar
    37   24   28 1
    38   24   25 2
    39   25   26 1
    40   25   38 1
    41   26   27 2
    42   26   39 1
    43   27   28 1
    44   27   40 1
@<TRIPOS>MOLECULE
ZINC02571797
   33    34     0     0     0
SMALL
USER_CHARGES
N-[(3-bromophenyl)methyleneamino]-N'-(3,4-dichlorophenyl)-oxamide
@<TRIPOS>ATOM
      1 C1          9.6219    1.2728    0.3819 C.ar      1 <0>        -0.1166
      2 C2          8.3995    1.9054    0.2903 C.ar      1 <0>        -0.0704
      3 C3          7.2239    1.1506    0.2913 C.ar      1 <0>        -0.0562
      4 C4          7.2952   -0.2414    0.3905 C.ar      1 <0>        -0.0492
      5 C5          8.5251   -0.8612    0.4767 C.ar      1 <0>        -0.0974
      6 C6          9.6860   -0.1060    0.4751 C.ar      1 <0>        -0.0712
      7 Br1         8.6253   -2.7452    0.6052 Br        1 <0>        -0.0410
      8 C7          5.9140    1.8199    0.1942 C.2       1 <0>         0.1270
      9 N1          4.8230    1.1152    0.1954 N.2       1 <0>        -0.2293
     10 N2          3.5781    1.7513    0.1031 N.am      1 <0>        -0.5562
     11 C8          2.4460    1.0201    0.1043 C.2       1 <0>         0.5319
     12 O1          2.5049   -0.1902    0.1854 O.2       1 <0>        -0.4715
     13 C9          1.1211    1.6971    0.0061 C.2       1 <0>         0.5187
     14 O2          1.0621    2.9070   -0.0749 O.2       1 <0>        -0.4901
     15 N3         -0.0111    0.9658    0.0074 N.am      1 <0>        -0.6381
     16 C10        -1.2548    1.6035    0.0070 C.ar      1 <0>         0.1537
     17 C11        -2.3243    1.0431    0.6946 C.ar      1 <0>        -0.1185
     18 C12        -3.5505    1.6781    0.6985 C.ar      1 <0>        -0.0771
     19 C13        -3.7187    2.8655    0.0077 C.ar      1 <0>        -0.0415
     20 C14        -2.6565    3.4236   -0.6838 C.ar      1 <0>        -0.0131
     21 C15        -1.4253    2.7953   -0.6853 C.ar      1 <0>        -0.1015
     22 Cl1        -2.8713    4.9134   -1.5487 Cl        1 <0>        -0.0369
     23 Cl2        -5.2638    3.6569    0.0085 Cl        1 <0>        -0.0418
     24 H1         10.5313    1.8554    0.3813 H         1 <0>         0.1401
     25 H2          8.3514    2.9819    0.2184 H         1 <0>         0.1383
     26 H3          6.3903   -0.8308    0.3964 H         1 <0>         0.1463
     27 H4         10.6459   -0.5958    0.5473 H         1 <0>         0.1376
     28 H5          5.8616    2.8962    0.1221 H         1 <0>         0.1321
     29 H6          3.5310    2.7180    0.0384 H         1 <0>         0.4020
     30 H7          0.0373   -0.0030    0.0044 H         1 <0>         0.4303
     31 H8         -2.1953    0.1141    1.2301 H         1 <0>         0.1478
     32 H9         -4.3804    1.2453    1.2372 H         1 <0>         0.1521
     33 H10        -0.5970    3.2305   -1.2246 H         1 <0>         0.1595
@<TRIPOS>BOND
     1    1    6 ar
     2    1    2 ar
     3    1   24 1
     4    2    3 ar
     5    2   25 1
     6    3    4 ar
     7    3    8 1
     8    4    5 ar
     9    4   26 1
    10    5    6 ar
    11    5    7 1
    12    6   27 1
    13    8    9 2
    14    8   28 1
    15    9   10 1
    16   10   11 am
    17   10   29 1
    18   11   12 2
    19   11   13 1
    20   13   14 2
    21   13   15 am
    22   15   16 1
    23   15   30 1
    24   16   21 ar
    25   16   17 ar
    26   17   18 ar
    27   17   31 1
    28   18   19 ar
    29   18   32 1
    30   19   20 ar
    31   19   23 1
    32   20   21 ar
    33   20   22 1
    34   21   33 1
@<TRIPOS>MOLECULE
ZINC09685722
   53    57     0     0     0
SMALL
USER_CHARGES
3-methyl-5-oxo-N-tetralin-1-yl-6,7,8,9-tetrahydrocarbazole-2-sulfonamide
@<TRIPOS>ATOM
      1 C1          0.4303    1.5600   -0.2503 C.3       1 <0>        -0.1415
      2 C2          0.3755    0.0546   -0.2078 C.ar      1 <0>         0.0009
      3 C3          0.6440   -0.6083    0.9697 C.ar      1 <0>        -0.0927
      4 C4          0.5929   -1.9992    1.0094 C.ar      1 <0>         0.0112
      5 C5          0.2671   -2.7219   -0.1534 C.ar      1 <0>         0.0450
      6 C6         -0.0004   -2.0337   -1.3312 C.ar      1 <0>        -0.0025
      7 C7          0.0494   -0.6568   -1.3527 C.ar      1 <0>        -0.6693
      8 S1         -0.2977    0.2069   -2.8487 S.o2      1 <0>         2.6950
      9 O1          0.7708    1.1227   -3.0463 O.2       1 <0>        -0.9414
     10 O2         -0.6466   -0.7762   -3.8136 O.2       1 <0>        -0.9436
     11 N1         -1.6571    1.1153   -2.5856 N.pl3     1 <0>        -1.0522
     12 C8         -2.8894    0.4877   -2.3903 C.ar      1 <0>         0.1688
     13 C9         -2.9487   -0.7167   -1.7059 C.ar      1 <0>        -0.1761
     14 C10        -4.1691   -1.3324   -1.5094 C.ar      1 <0>        -0.0849
     15 C11        -5.3189   -0.7530   -2.0067 C.ar      1 <0>        -0.1365
     16 C12        -5.2645    0.4497   -2.7001 C.ar      1 <0>        -0.0481
     17 C13        -4.0531    1.0735   -2.8901 C.ar      1 <0>        -0.0925
     18 C14        -3.9215    2.3859   -3.6173 C.3       1 <0>        -0.0846
     19 C15        -5.1700    2.6658   -4.4512 C.3       1 <0>        -0.1196
     20 C16        -6.4001    2.5005   -3.5511 C.3       1 <0>        -0.1211
     21 C17        -6.5590    1.0179   -3.2202 C.3       1 <0>        -0.0828
     22 N2          0.2883   -4.0679    0.1647 N.pl3     1 <0>        -0.5530
     23 H1          0.0965   -4.7853   -0.4594 H         1 <0>         0.4247
     24 C18         0.6094   -4.2445    1.4527 C.2       1 <0>         0.1860
     25 C19         0.8109   -3.0081    2.0485 C.2       1 <0>        -0.2902
     26 C20         1.1595   -2.8653    3.4132 C.2       1 <0>         0.4232
     27 O3          1.3672   -1.7719    3.8980 O.2       1 <0>        -0.4693
     28 C21         1.2634   -4.1247    4.2462 C.3       1 <0>        -0.1566
     29 C22         1.7376   -5.2896    3.3775 C.3       1 <0>        -0.1123
     30 C23         0.7566   -5.5352    2.2246 C.3       1 <0>        -0.0703
     31 H2          1.4107    1.8780   -0.6051 H         1 <0>         0.0988
     32 H3         -0.3392    1.9327   -0.9264 H         1 <0>         0.0624
     33 H4          0.2591    1.9582    0.7498 H         1 <0>         0.0867
     34 H5          0.8940   -0.0504    1.8600 H         1 <0>         0.1419
     35 H6         -0.2513   -2.5785   -2.2293 H         1 <0>         0.1480
     36 H7         -1.5974    2.0833   -2.5671 H         1 <0>         0.4270
     37 H8         -2.0452   -1.1690   -1.3245 H         1 <0>         0.1306
     38 H9         -4.2232   -2.2674   -0.9716 H         1 <0>         0.1262
     39 H10        -6.2710   -1.2399   -1.8554 H         1 <0>         0.1248
     40 H11        -3.7874    3.1874   -2.8908 H         1 <0>         0.0775
     41 H12        -3.0521    2.3475   -4.2736 H         1 <0>         0.0751
     42 H13        -5.2239    1.9596   -5.2798 H         1 <0>         0.0679
     43 H14        -5.1324    3.6842   -4.8381 H         1 <0>         0.0704
     44 H15        -7.2879    2.8573   -4.0734 H         1 <0>         0.0698
     45 H16        -6.2619    3.0691   -2.6315 H         1 <0>         0.0665
     46 H17        -6.8526    0.4782   -4.1205 H         1 <0>         0.0797
     47 H18        -7.3336    0.8998   -2.4624 H         1 <0>         0.0775
     48 H19         1.9183   -3.9806    4.9880 H         1 <0>         0.0878
     49 H20         0.2858   -4.3628    4.6652 H         1 <0>         0.1010
     50 H21         2.7211   -5.0568    2.9694 H         1 <0>         0.0755
     51 H22         1.8064   -6.1894    3.9889 H         1 <0>         0.0906
     52 H23         1.1463   -6.3140    1.5690 H         1 <0>         0.0949
     53 H24        -0.2113   -5.8394    2.6230 H         1 <0>         0.1054
@<TRIPOS>BOND
     1    1    2 1
     2    1   31 1
     3    1   32 1
     4    1   33 1
     5    2    7 ar
     6    2    3 ar
     7    3    4 ar
     8    3   34 1
     9    4   25 1
    10    4    5 ar
    11    5    6 ar
    12    5   22 1
    13    6    7 ar
    14    6   35 1
    15    7    8 1
    16    8    9 2
    17    8   10 2
    18    8   11 1
    19   11   12 1
    20   11   36 1
    21   12   17 ar
    22   12   13 ar
    23   13   14 ar
    24   13   37 1
    25   14   15 ar
    26   14   38 1
    27   15   16 ar
    28   15   39 1
    29   16   21 1
    30   16   17 ar
    31   17   18 1
    32   18   19 1
    33   18   40 1
    34   18   41 1
    35   19   20 1
    36   19   42 1
    37   19   43 1
    38   20   21 1
    39   20   44 1
    40   20   45 1
    41   21   46 1
    42   21   47 1
    43   22   23 1
    44   22   24 1
    45   24   30 1
    46   24   25 2
    47   25   26 1
    48   26   27 2
    49   26   28 1
    50   28   29 1
    51   28   48 1
    52   28   49 1
    53   29   30 1
    54   29   50 1
    55   29   51 1
    56   30   52 1
    57   30   53 1
@<TRIPOS>MOLECULE
ZINC28402606
   45    47     0     0     0
SMALL
USER_CHARGES
N-[1-(3-bromophenyl)ethylideneamino]-5-(3,4-dimethylphenyl)-2H-pyrazole-3-carboxamide
@<TRIPOS>ATOM
      1 C1        -11.3887   -1.9360    1.0449 C.3       1 <0>        -0.1175
      2 C2         -9.8920   -1.8522    0.8905 C.ar      1 <0>        -0.0805
      3 C3         -9.1142   -2.9784    1.0917 C.ar      1 <0>        -0.1146
      4 C4         -7.7432   -2.9073    0.9512 C.ar      1 <0>        -0.1006
      5 C5         -7.1426   -1.6984    0.6060 C.ar      1 <0>        -0.0125
      6 C6         -7.9299   -0.5662    0.4102 C.ar      1 <0>        -0.0902
      7 C7         -9.3010   -0.6498    0.5477 C.ar      1 <0>        -0.0879
      8 C8        -10.1547    0.5728    0.3296 C.3       1 <0>        -0.1156
      9 C9         -5.6682   -1.6160    0.4534 C.2       1 <0>         0.0662
     10 C10        -4.7641   -2.6915    0.5227 C.2       1 <0>        -0.1288
     11 C11        -3.5157   -2.1316    0.3266 C.2       1 <0>        -0.0493
     12 N1         -3.7166   -0.7920    0.1449 N.pl3     1 <0>        -0.3840
     13 H1         -2.8594   -0.1269   -0.0361 H         1 <0>         0.4697
     14 N2         -4.9701   -0.5239    0.2236 N.2       1 <0>        -0.2367
     15 C12        -2.2257   -2.8391    0.3102 C.2       1 <0>         0.6101
     16 O1         -2.1896   -4.0423    0.4866 O.2       1 <0>        -0.4810
     17 N3         -1.0842   -2.1542    0.0999 N.am      1 <0>        -0.5978
     18 N4          0.1441   -2.8278    0.0844 N.2       1 <0>        -0.2093
     19 C13         1.2298   -2.1906   -0.2317 C.2       1 <0>         0.1390
     20 C14         2.5694   -2.8649   -0.0840 C.3       1 <0>        -0.0990
     21 C15         1.1524   -0.8068   -0.7355 C.ar      1 <0>        -0.0885
     22 C16         2.1457    0.1177   -0.4028 C.ar      1 <0>        -0.0721
     23 C17         2.0676    1.4102   -0.8776 C.ar      1 <0>        -0.1026
     24 C18         1.0086    1.7928   -1.6819 C.ar      1 <0>        -0.0752
     25 C19         0.0205    0.8824   -2.0159 C.ar      1 <0>        -0.0899
     26 C20         0.0861   -0.4145   -1.5477 C.ar      1 <0>        -0.1083
     27 Br1        -1.4219    1.4167   -3.1158 Br        1 <0>        -0.0330
     28 H2        -11.6722   -2.9632    1.3179 H         1 <0>         0.0658
     29 H3        -11.8712   -1.6626    0.0949 H         1 <0>         0.0708
     30 H4        -11.7152   -1.2433    1.8346 H         1 <0>         0.0708
     31 H5         -9.5808   -3.9148    1.3597 H         1 <0>         0.1268
     32 H6         -7.1369   -3.7870    1.1089 H         1 <0>         0.1269
     33 H7         -7.4689    0.3743    0.1468 H         1 <0>         0.1284
     34 H8         -9.5125    1.4262    0.0663 H         1 <0>         0.0652
     35 H9        -10.7093    0.8019    1.2515 H         1 <0>         0.0706
     36 H10       -10.8654    0.3826   -0.4882 H         1 <0>         0.0705
     37 H11        -4.9958   -3.7322    0.6948 H         1 <0>         0.1686
     38 H12        -1.1169   -1.0663   -0.0596 H         1 <0>         0.3929
     39 H13         3.3647   -2.1731   -0.3984 H         1 <0>         0.0856
     40 H14         2.5975   -3.7664   -0.7137 H         1 <0>         0.0907
     41 H15         2.7237   -3.1473    0.9679 H         1 <0>         0.0901
     42 H16         2.9731   -0.1792    0.2246 H         1 <0>         0.1433
     43 H17         2.8326    2.1268   -0.6174 H         1 <0>         0.1431
     44 H18         0.9526    2.8063   -2.0509 H         1 <0>         0.1413
     45 H19        -0.6854   -1.1239   -1.8084 H         1 <0>         0.1384
@<TRIPOS>BOND
     1    1    2 1
     2    1   28 1
     3    1   29 1
     4    1   30 1
     5    2    7 ar
     6    2    3 ar
     7    3    4 ar
     8    3   31 1
     9    4    5 ar
    10    4   32 1
    11    5    6 ar
    12    5    9 1
    13    6    7 ar
    14    6   33 1
    15    7    8 1
    16    8   34 1
    17    8   35 1
    18    8   36 1
    19    9   14 2
    20    9   10 1
    21   10   11 2
    22   10   37 1
    23   11   12 1
    24   11   15 1
    25   12   13 1
    26   12   14 1
    27   15   16 2
    28   15   17 am
    29   17   18 1
    30   17   38 1
    31   18   19 2
    32   19   20 1
    33   19   21 1
    34   20   39 1
    35   20   40 1
    36   20   41 1
    37   21   26 ar
    38   21   22 ar
    39   22   23 ar
    40   22   42 1
    41   23   24 ar
    42   23   43 1
    43   24   25 ar
    44   24   44 1
    45   25   26 ar
    46   25   27 1
    47   26   45 1
@<TRIPOS>MOLECULE
ZINC40037817
   49    52     0     0     0
SMALL
USER_CHARGES

@<TRIPOS>ATOM
      1 C1         -0.0184    1.5028    0.0103 C.3       1 <0>        -0.1184
      2 C2          0.0021   -0.0041    0.0020 C.ar      1 <0>        -0.0387
      3 C3          0.0056   -0.6838   -1.2086 C.ar      1 <0>        -0.1376
      4 C4          0.0241   -2.0496   -1.2356 C.ar      1 <0>        -0.0478
      5 C5          0.0399   -2.7656   -0.0360 C.ar      1 <0>        -0.1539
      6 C6          0.0611   -4.1884    0.3015 C.2       1 <0>        -0.0472
      7 C7          0.0688   -4.2531    1.6585 C.2       1 <0>        -0.0546
      8 O1          0.0543   -3.0060    2.1740 O.3       1 <0>        -0.1864
      9 C8          0.0368   -2.0818    1.1940 C.ar      1 <0>         0.0870
     10 C9          0.0227   -0.6916    1.1960 C.ar      1 <0>        -0.1187
     11 C10         0.0889   -5.4932    2.4457 C.2       1 <0>         0.6018
     12 O2          0.1001   -6.5714    1.8821 O.2       1 <0>        -0.4752
     13 N1          0.0950   -5.4366    3.7922 N.am      1 <0>        -0.6101
     14 C11         0.1140   -6.6058    4.5344 C.2       1 <0>         0.0348
     15 C12         0.1170   -6.7396    5.9145 C.2       1 <0>        -0.2285
     16 C13         0.1389   -8.0893    6.4506 C.2       1 <0>        -0.0616
     17 C14         0.1541   -9.0576    5.5092 C.2       1 <0>        -0.2208
     18 S1          0.1311   -8.1871    3.9695 S.3       1 <0>         0.2888
     19 C15         0.1798  -10.5369    5.7406 C.3       1 <0>        -0.0349
     20 C16         0.5669  -10.7891    7.2052 C.3       1 <0>        -0.1143
     21 C17        -0.2835   -9.8877    8.1049 C.3       1 <0>        -0.1195
     22 C18         0.1442   -8.4285    7.9339 C.3       1 <0>        -0.0596
     23 C19         0.0995   -5.5680    6.7954 C.2       1 <0>         0.5789
     24 O3         -0.9618   -5.0983    7.1623 O.2       1 <0>        -0.5286
     25 N2          1.2584   -5.0110    7.1992 N.am      1 <0>        -0.7286
     26 C20         1.2409   -3.8401    8.0796 C.3       1 <0>         0.0844
     27 C21         0.0713   -5.3479   -0.6611 C.3       1 <0>        -0.1007
     28 H1          1.0042    1.8801    0.0026 H         1 <0>         0.0789
     29 H2         -0.5455    1.8639   -0.8728 H         1 <0>         0.0747
     30 H3         -0.5286    1.8543    0.9071 H         1 <0>         0.0724
     31 H4         -0.0066   -0.1291   -2.1352 H         1 <0>         0.1354
     32 H5          0.0261   -2.5734   -2.1800 H         1 <0>         0.1340
     33 H6          0.0239   -0.1518    2.1314 H         1 <0>         0.1368
     34 H7          0.0860   -4.5770    4.2416 H         1 <0>         0.4241
     35 H8         -0.8067  -10.9567    5.5437 H         1 <0>         0.0830
     36 H9          0.9146  -10.9991    5.0815 H         1 <0>         0.0818
     37 H10         0.3831  -11.8337    7.4567 H         1 <0>         0.0742
     38 H11         1.6222  -10.5574    7.3491 H         1 <0>         0.0680
     39 H12        -1.3338   -9.9914    7.8323 H         1 <0>         0.0676
     40 H13        -0.1497  -10.1847    9.1451 H         1 <0>         0.0704
     41 H14         1.1479   -8.2923    8.3365 H         1 <0>         0.0768
     42 H15        -0.5547   -7.7783    8.4601 H         1 <0>         0.0753
     43 H16         2.1042   -5.3853    6.9068 H         1 <0>         0.4036
     44 H17         0.7135   -3.0231    7.5871 H         1 <0>         0.0606
     45 H18         0.7320   -4.0927    9.0098 H         1 <0>         0.0623
     46 H19         2.2640   -3.5335    8.2968 H         1 <0>         0.0777
     47 H20         1.1013   -5.6136   -0.8989 H         1 <0>         0.0841
     48 H21        -0.4285   -6.2027   -0.2054 H         1 <0>         0.0936
     49 H22        -0.4515   -5.0661   -1.5750 H         1 <0>         0.0750
@<TRIPOS>BOND
     1    1    2 1
     2    1   28 1
     3    1   29 1
     4    1   30 1
     5    2   10 ar
     6    2    3 ar
     7    3    4 ar
     8    3   31 1
     9    4    5 ar
    10    4   32 1
    11    5    9 ar
    12    5    6 1
    13    6    7 2
    14    6   27 1
    15    7    8 1
    16    7   11 1
    17    8    9 1
    18    9   10 ar
    19   10   33 1
    20   11   12 2
    21   11   13 am
    22   13   14 1
    23   13   34 1
    24   14   18 1
    25   14   15 2
    26   15   16 1
    27   15   23 1
    28   16   22 1
    29   16   17 2
    30   17   18 1
    31   17   19 1
    32   19   20 1
    33   19   35 1
    34   19   36 1
    35   20   21 1
    36   20   37 1
    37   20   38 1
    38   21   22 1
    39   21   39 1
    40   21   40 1
    41   22   41 1
    42   22   42 1
    43   23   24 2
    44   23   25 am
    45   25   26 1
    46   25   43 1
    47   26   44 1
    48   26   45 1
    49   26   46 1
    50   27   47 1
    51   27   48 1
    52   27   49 1
@<TRIPOS>MOLECULE
ZINC59849793
   39    43     0     0     0
SMALL
USER_CHARGES

@<TRIPOS>ATOM
      1 C1         -0.0124    1.3777    0.1979 C.ar      1 <0>        -0.0909
      2 C2          1.1659    2.0933    0.1977 C.ar      1 <0>        -0.0671
      3 C3          2.3736    1.4393    0.0069 C.ar      1 <0>        -0.0018
      4 C4          2.3948    0.0492   -0.1857 C.ar      1 <0>         0.0450
      5 C5          1.1982   -0.6680   -0.1842 C.ar      1 <0>        -0.0900
      6 C6          0.0009   -0.0020    0.0074 C.ar      1 <0>         0.1517
      7 N1         -1.2023   -0.7177    0.0102 N.am      1 <0>        -0.6677
      8 C7         -2.3261   -0.1485   -0.4689 C.2       1 <0>         0.5839
      9 O1         -2.2770    0.9494   -0.9913 O.2       1 <0>        -0.4764
     10 C8         -3.6098   -0.8532   -0.3605 C.2       1 <0>         0.0260
     11 C9         -4.8065   -0.3871   -0.8095 C.2       1 <0>        -0.0200
     12 C10        -5.7887   -1.3642   -0.5121 C.ar      1 <0>        -0.1046
     13 C11        -7.1704   -1.4360   -0.7317 C.ar      1 <0>        -0.0426
     14 C12        -7.8670   -2.5362   -0.3213 C.ar      1 <0>        -0.0566
     15 C13        -7.2173   -3.5884    0.3140 C.ar      1 <0>        -0.0687
     16 C14        -5.8602   -3.5403    0.5407 C.ar      1 <0>        -0.1162
     17 C15        -5.1287   -2.4288    0.1312 C.ar      1 <0>         0.1317
     18 N2         -3.7952   -2.1000    0.2093 N.pl3     1 <0>        -0.5680
     19 H1         -3.0997   -2.6507    0.6018 H         1 <0>         0.4262
     20 Cl1        -9.5793   -2.6218   -0.5945 Cl        1 <0>        -0.0609
     21 Cl2        -5.0810    1.1320   -1.6037 Cl        1 <0>        -0.0014
     22 N3          3.7007   -0.2998   -0.3428 N.2       1 <0>        -0.4773
     23 C16         4.4332    0.7697   -0.2572 C.2       1 <0>         0.2885
     24 O2          3.6616    1.8470   -0.0448 O.3       1 <0>        -0.2101
     25 C17         5.9351    0.7966   -0.3783 C.3       1 <0>        -0.0860
     26 C18         6.6468    2.1109   -0.0514 C.3       1 <0>        -0.1585
     27 C19         6.5382    1.6404   -1.5031 C.3       1 <0>        -0.1529
     28 H2         -0.9510    1.8893    0.3512 H         1 <0>         0.1548
     29 H3          1.1483    3.1630    0.3456 H         1 <0>         0.1437
     30 H4          1.2066   -1.7378   -0.3321 H         1 <0>         0.1408
     31 H5         -1.2272   -1.6233    0.3569 H         1 <0>         0.4088
     32 H6         -7.6833   -0.6231   -1.2242 H         1 <0>         0.1423
     33 H7         -7.7826   -4.4516    0.6330 H         1 <0>         0.1449
     34 H8         -5.3644   -4.3628    1.0347 H         1 <0>         0.1403
     35 H9          6.4446   -0.1307   -0.1162 H         1 <0>         0.1518
     36 H10         6.0287    2.9562    0.2513 H         1 <0>         0.1060
     37 H11         7.6247    2.0486    0.4261 H         1 <0>         0.1140
     38 H12         7.4446    1.2684   -1.9808 H         1 <0>         0.1152
     39 H13         5.8486    2.1760   -2.1556 H         1 <0>         0.1022
@<TRIPOS>BOND
     1    1    6 ar
     2    1    2 ar
     3    1   28 1
     4    2    3 ar
     5    2   29 1
     6    3   24 1
     7    3    4 ar
     8    4    5 ar
     9    4   22 1
    10    5    6 ar
    11    5   30 1
    12    6    7 1
    13    7    8 am
    14    7   31 1
    15    8    9 2
    16    8   10 1
    17   10   18 1
    18   10   11 2
    19   11   12 1
    20   11   21 1
    21   12   17 ar
    22   12   13 ar
    23   13   14 ar
    24   13   32 1
    25   14   15 ar
    26   14   20 1
    27   15   16 ar
    28   15   33 1
    29   16   17 ar
    30   16   34 1
    31   17   18 1
    32   18   19 1
    33   22   23 2
    34   23   24 1
    35   23   25 1
    36   25   27 1
    37   25   26 1
    38   25   35 1
    39   26   27 1
    40   26   36 1
    41   26   37 1
    42   27   38 1
    43   27   39 1
@<TRIPOS>MOLECULE
ZINC09509177
   50    54     0     0     0
SMALL
USER_CHARGES
2-(methyl-phenyl-BLAHyl)sulfanylbenzoic acid
@<TRIPOS>ATOM
      1 C1          1.4539   -5.7330    3.2466 C.3       1 <0>        -0.1183
      2 C2          1.1787   -4.3373    2.7494 C.ar      1 <0>         0.1968
      3 C3          0.2646   -4.1610    1.7201 C.ar      1 <0>        -0.2391
      4 C4         -0.0362   -2.8895    1.2124 C.ar      1 <0>         0.1001
      5 C5          0.6586   -1.8013    1.8247 C.ar      1 <0>        -0.1446
      6 C6          0.5270   -0.3947    1.4840 C.2       1 <0>        -0.0811
      7 C7          1.2838    0.4755    2.1921 C.2       1 <0>        -0.1497
      8 S1          2.1984   -0.5255    3.3372 S.3       1 <0>         0.0733
      9 C8          1.5686   -2.1079    2.8671 C.ar      1 <0>         0.1018
     10 N1          1.8186   -3.3195    3.3113 N.ar      1 <0>        -0.4388
     11 C9          1.3361    1.9646    2.0393 C.3       1 <0>        -0.0379
     12 C10         0.6782    2.3397    0.7036 C.3       1 <0>        -0.1137
     13 C11        -0.6582    1.6001    0.5916 C.3       1 <0>        -0.1208
     14 C12        -0.4089    0.1058    0.3868 C.3       1 <0>        -0.0649
     15 C13        -1.0095   -2.6875    0.1152 C.ar      1 <0>        -0.0470
     16 C14        -2.3733   -2.8686    0.3465 C.ar      1 <0>        -0.0776
     17 C15        -3.2757   -2.6736   -0.6788 C.ar      1 <0>        -0.1152
     18 C16        -2.8297   -2.3101   -1.9370 C.ar      1 <0>        -0.1088
     19 C17        -1.4781   -2.1341   -2.1740 C.ar      1 <0>        -0.1205
     20 C18        -0.5661   -2.3209   -1.1557 C.ar      1 <0>        -0.0915
     21 S2         -0.5377   -5.5715    1.0335 S.3       1 <0>         0.1308
     22 C19         0.5278   -6.0719   -0.2776 C.ar      1 <0>        -0.0759
     23 C20         1.6929   -5.3606   -0.5418 C.ar      1 <0>        -0.1433
     24 C21         2.5276   -5.7576   -1.5652 C.ar      1 <0>        -0.1044
     25 C22         2.2090   -6.8595   -2.3445 C.ar      1 <0>        -0.1466
     26 C23         1.0568   -7.5739   -2.1027 C.ar      1 <0>        -0.0590
     27 C24         0.2019   -7.1885   -1.0657 C.ar      1 <0>        -0.1028
     28 C25        -1.0315   -7.9479   -0.8011 C.2       1 <0>         0.4872
     29 O1         -1.7715   -7.6095    0.1016 O.co2     1 <0>        -0.5976
     30 H1          2.2771   -6.1656    2.6779 H         1 <0>         0.0846
     31 H2          1.7215   -5.6964    4.3026 H         1 <0>         0.0794
     32 H3          0.5621   -6.3467    3.1188 H         1 <0>         0.1020
     33 H4          0.7956    2.4363    2.8600 H         1 <0>         0.0840
     34 H5          2.3740    2.2973    2.0452 H         1 <0>         0.0820
     35 H6          1.3288    2.0462   -0.1202 H         1 <0>         0.0684
     36 H7          0.5048    3.4153    0.6707 H         1 <0>         0.0732
     37 H8         -1.2198    1.9931   -0.2558 H         1 <0>         0.0698
     38 H9         -1.2326    1.7495    1.5059 H         1 <0>         0.0649
     39 H10        -1.3550   -0.4328    0.4403 H         1 <0>         0.0836
     40 H11         0.0493   -0.0575   -0.5886 H         1 <0>         0.0805
     41 H12        -2.7222   -3.1571    1.3270 H         1 <0>         0.1231
     42 H13        -4.3321   -2.8099   -0.5001 H         1 <0>         0.1258
     43 H14        -3.5397   -2.1627   -2.7374 H         1 <0>         0.1219
     44 H15        -1.1361   -1.8502   -3.1583 H         1 <0>         0.1226
     45 H16         0.4888   -2.1832   -1.3419 H         1 <0>         0.1168
     46 H17         1.9463   -4.4985    0.0574 H         1 <0>         0.1070
     47 H18         3.4336   -5.2042   -1.7637 H         1 <0>         0.1136
     48 H19         2.8681   -7.1589   -3.1460 H         1 <0>         0.1175
     49 H20         0.8137   -8.4307   -2.7135 H         1 <0>         0.1343
     50 O2         -1.3397   -9.0183   -1.5599 O.co2     1 <0>        -0.7458
@<TRIPOS>BOND
     1    1    2 1
     2    1   30 1
     3    1   31 1
     4    1   32 1
     5    2   10 ar
     6    2    3 ar
     7    3    4 ar
     8    3   21 1
     9    4    5 ar
    10    4   15 1
    11    5    9 ar
    12    5    6 1
    13    6   14 1
    14    6    7 2
    15    7    8 1
    16    7   11 1
    17    8    9 1
    18    9   10 ar
    19   11   12 1
    20   11   33 1
    21   11   34 1
    22   12   13 1
    23   12   35 1
    24   12   36 1
    25   13   14 1
    26   13   37 1
    27   13   38 1
    28   14   39 1
    29   14   40 1
    30   15   20 ar
    31   15   16 ar
    32   16   17 ar
    33   16   41 1
    34   17   18 ar
    35   17   42 1
    36   18   19 ar
    37   18   43 1
    38   19   20 ar
    39   19   44 1
    40   20   45 1
    41   21   22 1
    42   22   27 ar
    43   22   23 ar
    44   23   24 ar
    45   23   46 1
    46   24   25 ar
    47   24   47 1
    48   25   26 ar
    49   25   48 1
    50   26   27 ar
    51   26   49 1
    52   27   28 1
    53   28   29 2
    54   28   50 1
@<TRIPOS>MOLECULE
ZINC33438131
   48    53     0     0     0
SMALL
USER_CHARGES
(2R)-3-(benzofuran-2-carbonyl)-1-(6-chloro-1,3-benzothiazol-2-yl)-4-hydroxy-2-(5-methyl-2-furyl)-2H-pyrrol-5-one
@<TRIPOS>ATOM
      1 C1          1.6437    4.0814   -4.7648 C.3       1 <0>        -0.0744
      2 C2          1.6704    3.8445   -3.2768 C.2       1 <0>        -0.0142
      3 C3          0.6022    3.5818   -2.5027 C.2       1 <0>        -0.2098
      4 C4          1.0819    3.4253   -1.1820 C.2       1 <0>        -0.1971
      5 C5          2.4136    3.6101   -1.2266 C.2       1 <0>        -0.0165
      6 O1          2.7649    3.8604   -2.4985 O.3       1 <0>        -0.1574
      7 C6          3.3528    3.5413   -0.0501 C.3       1 <0>         0.3099
      8 H1          2.7574    3.6354    0.8700 H         1 <0>         0.1123
      9 C7          4.1433    2.2542   -0.0908 C.2       1 <0>        -0.4953
     10 C8          5.4493    2.6009   -0.1735 C.2       1 <0>         0.2877
     11 C9          5.5603    4.0725   -0.1995 C.2       1 <0>         0.5170
     12 O2          6.6033    4.6917   -0.2727 O.2       1 <0>        -0.4566
     13 N1          4.3371    4.6275   -0.1241 N.am      1 <0>        -0.5092
     14 C10         4.0566    5.9825   -0.1171 C.2       1 <0>         0.4312
     15 N2          4.8887    6.9959   -0.1804 N.2       1 <0>        -0.5399
     16 C11         4.4711    8.2802   -0.1638 C.ar      1 <0>         0.1313
     17 C12         5.2567    9.4546   -0.2259 C.ar      1 <0>        -0.0641
     18 C13         4.6696   10.6923   -0.1981 C.ar      1 <0>        -0.0939
     19 C14         3.2918   10.8398   -0.1090 C.ar      1 <0>        -0.0385
     20 C15         2.4926    9.7120   -0.0464 C.ar      1 <0>        -0.0413
     21 C16         3.0729    8.4683   -0.0733 C.ar      1 <0>        -0.1631
     22 S1          2.4688    6.7981   -0.0273 S.3       1 <0>         0.0237
     23 Cl1         2.5793   12.4226   -0.0759 Cl        1 <0>        -0.0627
     24 O3          6.4885    1.7352   -0.2267 O.3       1 <0>        -0.6227
     25 C17         3.6008    0.8924   -0.0434 C.2       1 <0>         0.5447
     26 O4          3.7193    0.1557   -1.0062 O.2       1 <0>        -0.4358
     27 C18         2.9147    0.4167    1.1653 C.2       1 <0>        -0.0070
     28 C19         2.2840   -0.7832    1.2874 C.2       1 <0>        -0.1492
     29 C20         1.7525   -0.8241    2.6482 C.ar      1 <0>        -0.1390
     30 C21         1.0199   -1.7628    3.3800 C.ar      1 <0>        -0.0647
     31 C22         0.6678   -1.4892    4.6713 C.ar      1 <0>        -0.1433
     32 C23         1.0324   -0.2857    5.2600 C.ar      1 <0>        -0.0932
     33 C24         1.7595    0.6509    4.5573 C.ar      1 <0>        -0.1080
     34 C25         2.1251    0.3976    3.2406 C.ar      1 <0>         0.0618
     35 O5          2.8141    1.1031    2.3223 O.3       1 <0>        -0.1657
     36 H2          0.6086    4.0064   -5.1295 H         1 <0>         0.0877
     37 H3          2.2653    3.3259   -5.2676 H         1 <0>         0.0784
     38 H4          2.0377    5.0849   -4.9834 H         1 <0>         0.0749
     39 H5         -0.4245    3.5019   -2.8282 H         1 <0>         0.1456
     40 H6          0.4921    3.2027   -0.3051 H         1 <0>         0.1469
     41 H7          6.3315    9.3750   -0.2957 H         1 <0>         0.1423
     42 H8          5.2926   11.5732   -0.2469 H         1 <0>         0.1412
     43 H9          1.4193    9.8095    0.0228 H         1 <0>         0.1404
     44 H10         2.1941   -1.5496    0.5318 H         1 <0>         0.1657
     45 H11         0.7332   -2.7002    2.9266 H         1 <0>         0.1270
     46 H12         0.1018   -2.2137    5.2379 H         1 <0>         0.1270
     47 H13         0.7469   -0.0832    6.2818 H         1 <0>         0.1329
     48 H14         2.0378    1.5831    5.0265 H         1 <0>         0.1331
@<TRIPOS>BOND
     1    1    2 1
     2    1   36 1
     3    1   37 1
     4    1   38 1
     5    2    6 1
     6    2    3 2
     7    3    4 1
     8    3   39 1
     9    4    5 2
    10    4   40 1
    11    5    6 1
    12    5    7 1
    13    7    8 1
    14    7   13 1
    15    7    9 1
    16    9   10 2
    17    9   25 1
    18   10   11 1
    19   10   24 1
    20   11   12 2
    21   11   13 am
    22   13   14 1
    23   14   22 1
    24   14   15 2
    25   15   16 1
    26   16   21 ar
    27   16   17 ar
    28   17   18 ar
    29   17   41 1
    30   18   19 ar
    31   18   42 1
    32   19   20 ar
    33   19   23 1
    34   20   21 ar
    35   20   43 1
    36   21   22 1
    37   25   26 2
    38   25   27 1
    39   27   35 1
    40   27   28 2
    41   28   29 1
    42   28   44 1
    43   29   34 ar
    44   29   30 ar
    45   30   31 ar
    46   30   45 1
    47   31   32 ar
    48   31   46 1
    49   32   33 ar
    50   32   47 1
    51   33   34 ar
    52   33   48 1
    53   34   35 1
@<TRIPOS>MOLECULE
ZINC37384290
   26    27     0     0     0
SMALL
USER_CHARGES

@<TRIPOS>ATOM
      1 C1          0.0003    1.3217    0.0058 C.ar      1 <0>        -0.1412
      2 C2          1.1802    2.0424   -0.0028 C.ar      1 <0>        -0.0072
      3 C3          2.3941    1.3815   -0.0119 C.ar      1 <0>        -0.6100
      4 C4          2.4290   -0.0004   -0.0123 C.ar      1 <0>         0.0067
      5 C5          1.2490   -0.7218   -0.0033 C.ar      1 <0>        -0.1159
      6 C6          0.0342   -0.0599    0.0058 C.ar      1 <0>        -0.0562
      7 Br1         1.2961   -2.6122   -0.0046 Br        1 <0>        -0.0560
      8 S1          3.8974    2.3006   -0.0234 S.o2      1 <0>         2.6137
      9 O1          4.8893    1.4499   -0.5816 O.2       1 <0>        -1.0230
     10 O2          3.5901    3.5749   -0.5722 O.2       1 <0>        -1.0035
     11 N1          4.3271    2.5563    1.5553 N.2       1 <0>        -1.1109
     12 C7          5.5519    3.1605    1.8577 C.ar      1 <0>         0.2927
     13 C8          5.7833    4.4828    1.4991 C.ar      1 <0>        -0.1221
     14 C9          6.9947    5.0768    1.7994 C.ar      1 <0>        -0.0552
     15 C10         7.9763    4.3563    2.4562 C.ar      1 <0>        -0.1426
     16 C11         7.7492    3.0393    2.8142 C.ar      1 <0>        -0.0595
     17 C12         6.5376    2.4413    2.5224 C.ar      1 <0>        -0.0650
     18 Cl1         6.2505    0.7913    2.9794 Cl        1 <0>        -0.0640
     19 Br2         9.6321    5.1730    2.8650 Br        1 <0>        -0.0694
     20 Cl2         4.5525    5.3876    0.6744 Cl        1 <0>        -0.0290
     21 H1         -0.9480    1.8385    0.0170 H         1 <0>         0.1353
     22 H2          1.1533    3.1221   -0.0028 H         1 <0>         0.1439
     23 H3          3.3776   -0.5167   -0.0202 H         1 <0>         0.1450
     24 H4         -0.8875   -0.6227    0.0129 H         1 <0>         0.1332
     25 H5          7.1754    6.1045    1.5206 H         1 <0>         0.1294
     26 H6          8.5175    2.4794    3.3266 H         1 <0>         0.1309
@<TRIPOS>BOND
     1    1    6 ar
     2    1    2 ar
     3    1   21 1
     4    2    3 ar
     5    2   22 1
     6    3    4 ar
     7    3    8 1
     8    4    5 ar
     9    4   23 1
    10    5    6 ar
    11    5    7 1
    12    6   24 1
    13    8    9 2
    14    8   10 2
    15    8   11 1
    16   11   12 1
    17   12   17 ar
    18   12   13 ar
    19   13   14 ar
    20   13   20 1
    21   14   15 ar
    22   14   25 1
    23   15   16 ar
    24   15   19 1
    25   16   17 ar
    26   16   26 1
    27   17   18 1
@<TRIPOS>MOLECULE
ZINC40475340
   55    59     0     0     0
SMALL
USER_CHARGES

@<TRIPOS>ATOM
      1 C1         -0.0035    1.5565    0.4018 C.3       1 <0>        -0.1128
      2 C2          0.0154    0.0515    0.3283 C.ar      1 <0>        -0.0982
      3 C3          0.0229   -0.5792   -0.9023 C.ar      1 <0>        -0.0998
      4 C4          0.0403   -1.9585   -0.9729 C.ar      1 <0>        -0.1372
      5 C5          0.0505   -2.7117    0.1932 C.ar      1 <0>         0.1189
      6 C6          0.0434   -2.0758    1.4272 C.ar      1 <0>        -0.1355
      7 C7          0.0309   -0.6961    1.4915 C.ar      1 <0>        -0.1004
      8 N1          0.0677   -4.1120    0.1248 N.am      1 <0>        -0.5277
      9 C8          0.0731   -4.9105    1.2240 C.2       1 <0>         0.5576
     10 O1         -0.1388   -4.5749    2.3694 O.2       1 <0>        -0.4434
     11 C9          0.3929   -6.2882    0.7351 C.3       1 <0>        -0.1176
     12 H1          1.4740   -6.4085    0.6651 H         1 <0>         0.1435
     13 C10        -0.2025   -7.4764    1.4503 C.3       1 <0>         0.0807
     14 H2          0.1880   -7.5264    2.4667 H         1 <0>         0.1091
     15 C11         0.1774   -8.7191    0.7015 C.2       1 <0>        -0.2897
     16 C12         0.5993   -8.8621   -0.5903 C.2       1 <0>         0.1120
     17 N2          0.8879  -10.1109   -0.9508 N.2       1 <0>        -0.5560
     18 C13         0.7521  -11.1227   -0.1203 C.2       1 <0>         0.2820
     19 S1          0.1929  -10.3919    1.2906 S.3       1 <0>         0.0622
     20 S2          1.0768  -12.8295   -0.4134 S.3       1 <0>        -0.7205
     21 S3          0.7209   -7.4475   -1.6749 S.3       1 <0>         0.0017
     22 C14        -0.2182   -6.2314   -0.6971 C.3       1 <0>        -0.1472
     23 H3         -1.2874   -6.4431   -0.6904 H         1 <0>         0.1607
     24 C15         0.0746   -4.7990   -1.0463 C.2       1 <0>         0.5664
     25 O2          0.2785   -4.3482   -2.1530 O.2       1 <0>        -0.4384
     26 C16        -1.7033   -7.3453    1.4893 C.ar      1 <0>        -0.0919
     27 C17        -2.4669   -7.8315    0.4445 C.ar      1 <0>        -0.1035
     28 C18        -3.8436   -7.7113    0.4802 C.ar      1 <0>        -0.1142
     29 C19        -4.4567   -7.1054    1.5609 C.ar      1 <0>        -0.0689
     30 C20        -3.6931   -6.6201    2.6061 C.ar      1 <0>        -0.1211
     31 C21        -2.3168   -6.7441    2.5724 C.ar      1 <0>        -0.0984
     32 C22        -5.9574   -6.9735    1.5994 C.3       1 <0>        -0.0294
     33 C23        -6.5931   -8.3641    1.5456 C.3       1 <0>        -0.1390
     34 C24        -6.3746   -6.2717    2.8934 C.3       1 <0>        -0.1430
     35 C25        -6.4280   -6.1508    0.3984 C.3       1 <0>        -0.1383
     36 H4          1.0195    1.9326    0.4143 H         1 <0>         0.0702
     37 H5         -0.5269    1.9562   -0.4667 H         1 <0>         0.0661
     38 H6         -0.5167    1.8695    1.3111 H         1 <0>         0.0661
     39 H7          0.0149    0.0074   -1.8091 H         1 <0>         0.1289
     40 H8          0.0454   -2.4505   -1.9343 H         1 <0>         0.1527
     41 H9          0.0510   -2.6592    2.3360 H         1 <0>         0.1537
     42 H10         0.0291   -0.2007    2.4511 H         1 <0>         0.1287
     43 H11        -1.9879   -8.3048   -0.3998 H         1 <0>         0.1236
     44 H12        -4.4401   -8.0904   -0.3363 H         1 <0>         0.1207
     45 H13        -4.1721   -6.1464    3.4503 H         1 <0>         0.1253
     46 H14        -1.7205   -6.3683    3.3907 H         1 <0>         0.1272
     47 H15        -6.2578   -8.9503    2.4013 H         1 <0>         0.0574
     48 H16        -7.6786   -8.2687    1.5735 H         1 <0>         0.0564
     49 H17        -6.2958   -8.8641    0.6238 H         1 <0>         0.0580
     50 H18        -5.9217   -5.2810    2.9317 H         1 <0>         0.0577
     51 H19        -7.4601   -6.1763    2.9212 H         1 <0>         0.0561
     52 H20        -6.0394   -6.8578    3.7490 H         1 <0>         0.0591
     53 H21        -6.1307   -6.6507   -0.5234 H         1 <0>         0.0575
     54 H22        -7.5135   -6.0554    0.4262 H         1 <0>         0.0569
     55 H23        -5.9751   -5.1601    0.4367 H         1 <0>         0.0549
@<TRIPOS>BOND
     1    1    2 1
     2    1   36 1
     3    1   37 1
     4    1   38 1
     5    2    7 ar
     6    2    3 ar
     7    3    4 ar
     8    3   39 1
     9    4    5 ar
    10    4   40 1
    11    5    6 ar
    12    5    8 1
    13    6    7 ar
    14    6   41 1
    15    7   42 1
    16    8   24 am
    17    8    9 am
    18    9   10 2
    19    9   11 1
    20   11   12 1
    21   11   22 1
    22   11   13 1
    23   13   14 1
    24   13   15 1
    25   13   26 1
    26   15   19 1
    27   15   16 2
    28   16   17 1
    29   16   21 1
    30   17   18 2
    31   18   19 1
    32   18   20 1
    33   21   22 1
    34   22   23 1
    35   22   24 1
    36   24   25 2
    37   26   31 ar
    38   26   27 ar
    39   27   28 ar
    40   27   43 1
    41   28   29 ar
    42   28   44 1
    43   29   30 ar
    44   29   32 1
    45   30   31 ar
    46   30   45 1
    47   31   46 1
    48   32   33 1
    49   32   34 1
    50   32   35 1
    51   33   47 1
    52   33   48 1
    53   33   49 1
    54   34   50 1
    55   34   51 1
    56   34   52 1
    57   35   53 1
    58   35   54 1
    59   35   55 1
@<TRIPOS>MOLECULE
ZINC20494302
   35    38     0     0     0
SMALL
USER_CHARGES

@<TRIPOS>ATOM
      1 C1          0.7881    1.3683    1.1924 C.ar      1 <0>        -0.0955
      2 C2          1.1614    2.1161    0.1174 C.ar      1 <0>        -0.1074
      3 C3          1.5815    1.5003   -1.0730 C.ar      1 <0>        -0.0276
      4 C4          1.6160    0.0864   -1.1512 C.ar      1 <0>        -0.0097
      5 C5          2.0331   -0.5312   -2.3359 C.ar      1 <0>        -0.0806
      6 C6          2.4017    0.2346   -3.4020 C.ar      1 <0>        -0.1188
      7 C7          2.3694    1.6248   -3.3296 C.ar      1 <0>        -0.0821
      8 C8          1.9691    2.2592   -2.1920 C.ar      1 <0>        -0.0813
      9 Br1         1.9333    4.1484   -2.1187 Br        1 <0>        -0.0514
     10 C9          1.2115   -0.6949    0.0161 C.ar      1 <0>        -0.0732
     11 C10         0.8061   -0.0189    1.1611 C.ar      1 <0>        -0.0398
     12 C11         1.2322   -2.1667   -0.0204 C.2       1 <0>         0.5305
     13 O1          2.2869   -2.7565   -0.1497 O.2       1 <0>        -0.3736
     14 N1          0.0815   -2.8597    0.0895 N.am      1 <0>        -0.4855
     15 C12        -1.1086   -2.1938    0.0987 C.2       1 <0>         0.5104
     16 O2         -1.1509   -0.8539   -0.0004 O.3       1 <0>        -0.5563
     17 C13        -2.2908   -2.9475    0.2142 C.ar      1 <0>        -0.2498
     18 C14        -3.5554   -2.3406    0.2311 C.ar      1 <0>         0.0336
     19 C15        -4.6717   -3.1164    0.3446 C.ar      1 <0>        -0.1637
     20 C16        -4.5722   -4.5026    0.4445 C.ar      1 <0>        -0.0273
     21 C17        -3.3586   -5.1243    0.4313 C.ar      1 <0>        -0.1392
     22 C18        -2.1887   -4.3611    0.3155 C.ar      1 <0>         0.2422
     23 N2         -0.9765   -4.9333    0.2982 N.2       1 <0>        -0.5512
     24 C19         0.1192   -4.1996    0.1832 C.2       1 <0>         0.4781
     25 S1          1.6398   -4.9858    0.1595 S.2       1 <0>        -0.6025
     26 Br2        -6.3770   -2.2996    0.3674 Br        1 <0>        -0.0663
     27 H1          0.4735    1.8688    2.0962 H         1 <0>         0.1264
     28 H2          1.1339    3.1939    0.1807 H         1 <0>         0.1315
     29 H3          2.0631   -1.6086   -2.4051 H         1 <0>         0.1308
     30 H4          2.7237   -0.2436   -4.3153 H         1 <0>         0.1328
     31 H5          2.6664    2.2092   -4.1880 H         1 <0>         0.1318
     32 H6          0.5028   -0.5781    2.0339 H         1 <0>         0.1190
     33 H7         -3.6446   -1.2669    0.1550 H         1 <0>         0.1407
     34 H8         -5.4711   -5.0945    0.5343 H         1 <0>         0.1331
     35 H9         -3.2992   -6.1998    0.5097 H         1 <0>         0.1421
@<TRIPOS>BOND
     1    1   11 ar
     2    1    2 ar
     3    1   27 1
     4    2    3 ar
     5    2   28 1
     6    3    8 ar
     7    3    4 ar
     8    4    5 ar
     9    4   10 ar
    10    5    6 ar
    11    5   29 1
    12    6    7 ar
    13    6   30 1
    14    7    8 ar
    15    7   31 1
    16    8    9 1
    17   10   11 ar
    18   10   12 1
    19   11   32 1
    20   12   13 2
    21   12   14 am
    22   14   24 1
    23   14   15 1
    24   15   16 1
    25   15   17 2
    26   17   22 ar
    27   17   18 ar
    28   18   19 ar
    29   18   33 1
    30   19   20 ar
    31   19   26 1
    32   20   21 ar
    33   20   34 1
    34   21   22 ar
    35   21   35 1
    36   22   23 2
    37   23   24 1
    38   24   25 2
@<TRIPOS>MOLECULE
ZINC64218953
   80    84     0     0     0
SMALL
USER_CHARGES

@<TRIPOS>ATOM
      1 C1          0.2797    2.0772    0.8569 C.3       1 <0>        -0.1484
      2 C2          0.3099    0.5539    1.0382 C.3       1 <0>        -0.0794
      3 H1         -0.6419    0.1496    0.6756 H         1 <0>         0.0620
      4 C3          1.4379   -0.0299    0.1923 C.3       1 <0>        -0.1078
      5 C4          1.5183   -1.5413    0.3990 C.3       1 <0>        -0.0774
      6 C5          1.7834   -1.8624    1.8704 C.3       1 <0>        -0.1060
      7 C6          1.8214   -3.3890    2.0431 C.3       1 <0>        -0.0991
      8 C7          0.5040   -4.0052    1.5913 C.3       1 <0>        -0.1044
      9 C8         -0.6452   -3.4828    2.4568 C.3       1 <0>        -0.0050
     10 C9         -0.6219   -1.9870    2.4799 C.2       1 <0>        -0.0696
     11 C10        -1.6916   -1.2811    2.2687 C.2       1 <0>        -0.1999
     12 C11        -3.0356   -1.8508    1.9391 C.3       1 <0>        -0.0910
     13 C12        -3.1766   -3.3064    2.3994 C.3       1 <0>        -0.0483
     14 H2         -3.2559   -3.3075    3.5014 H         1 <0>         0.0627
     15 C13        -1.9590   -4.1014    1.9791 C.3       1 <0>        -0.0274
     16 C14        -1.9405   -4.2613    0.4609 C.3       1 <0>        -0.1115
     17 C15        -3.1912   -4.9903   -0.0005 C.3       1 <0>        -0.1076
     18 C16        -4.4738   -4.2662    0.4012 C.3       1 <0>        -0.0493
     19 H3         -5.2375   -5.1215    0.3900 H         1 <0>         0.0488
     20 C17        -4.5058   -3.8215    1.8343 C.3       1 <0>        -0.0226
     21 C18        -5.5842   -2.7713    2.1447 C.3       1 <0>        -0.1020
     22 C19        -5.7370   -1.7482    1.0349 C.3       1 <0>        -0.1611
     23 C20        -6.1122   -2.4454   -0.2681 C.3       1 <0>         0.1182
     24 H4         -6.2804   -1.6934   -1.0440 H         1 <0>         0.0493
     25 C21        -4.9915   -3.3853   -0.7095 C.3       1 <0>        -0.0336
     26 C22        -3.8980   -2.5723   -1.4070 C.3       1 <0>        -0.1509
     27 C23        -5.6152   -4.3117   -1.7880 C.3       1 <0>        -0.1399
     28 O1         -7.3136   -3.2037   -0.0881 O.3       1 <0>        -0.5612
     29 C24        -4.9609   -5.0429    2.6832 C.3       1 <0>        -0.1557
     30 C25        -1.9707   -5.5050    2.6184 C.3       1 <0>        -0.1536
     31 C26         0.6941   -1.2633    2.7475 C.3       1 <0>        -0.0103
     32 H5          0.9557   -1.4189    3.8040 H         1 <0>         0.0722
     33 C27         0.4883    0.2253    2.5124 C.3       1 <0>        -0.0672
     34 H6         -0.4401    0.5221    3.0423 H         1 <0>         0.0496
     35 C28         1.5831    1.0847    3.1370 C.3       1 <0>        -0.1500
     36 C29        -0.4293   -3.9869    3.8910 C.3       1 <0>        -0.1467
     37 C30         3.1573   -1.3612    2.2581 C.2       1 <0>         0.5105
     38 O2          3.8569   -0.8000    1.4322 O.co2     1 <0>        -0.6949
     39 O3          3.5649   -1.5186    3.3963 O.co2     1 <0>        -0.7011
     40 H7          1.2179    2.5040    1.2113 H         1 <0>         0.0580
     41 H8          0.1482    2.3149   -0.1987 H         1 <0>         0.0448
     42 H9         -0.5486    2.4949    1.4292 H         1 <0>         0.0437
     43 H10         1.2237    0.1676   -0.8666 H         1 <0>         0.0327
     44 H11         2.3827    0.4476    0.4341 H         1 <0>         0.0862
     45 H12         0.5722   -1.9854    0.0882 H         1 <0>         0.0395
     46 H13         2.3259   -1.9482   -0.2143 H         1 <0>         0.0506
     47 H14         2.6309   -3.7808    1.4162 H         1 <0>         0.0457
     48 H15         2.0461   -3.6319    3.0768 H         1 <0>         0.0651
     49 H16         0.3222   -3.7444    0.5505 H         1 <0>         0.0668
     50 H17         0.5687   -5.0894    1.6799 H         1 <0>         0.0525
     51 H18        -1.6452   -0.2005    2.3166 H         1 <0>         0.1087
     52 H19        -3.8006   -1.2416    2.4374 H         1 <0>         0.0614
     53 H20        -3.1823   -1.7889    0.8621 H         1 <0>         0.0781
     54 H21        -1.8439   -3.2855   -0.0083 H         1 <0>         0.0695
     55 H22        -1.0683   -4.8622    0.1817 H         1 <0>         0.0613
     56 H23        -3.1471   -5.0968   -1.0923 H         1 <0>         0.0567
     57 H24        -3.2111   -6.0031    0.3979 H         1 <0>         0.0575
     58 H25        -6.5358   -3.2953    2.2878 H         1 <0>         0.0597
     59 H26        -5.3384   -2.2712    3.0890 H         1 <0>         0.0606
     60 H27        -6.5444   -1.0513    1.3000 H         1 <0>         0.0526
     61 H28        -4.8277   -1.1613    0.9129 H         1 <0>         0.0889
     62 H29        -3.1189   -3.2445   -1.7665 H         1 <0>         0.0666
     63 H30        -4.3288   -2.0317   -2.2497 H         1 <0>         0.0514
     64 H31        -3.4676   -1.8617   -0.7013 H         1 <0>         0.0646
     65 H32        -6.4296   -4.8861   -1.3467 H         1 <0>         0.0632
     66 H33        -6.0005   -3.7061   -2.6084 H         1 <0>         0.0475
     67 H34        -4.8533   -4.9932   -2.1663 H         1 <0>         0.0490
     68 H35        -8.0775   -2.6732    0.1768 H         1 <0>         0.3691
     69 H36        -4.9498   -4.7754    3.7398 H         1 <0>         0.0497
     70 H37        -5.9709   -5.3317    2.3921 H         1 <0>         0.0500
     71 H38        -4.2810   -5.8776    2.5126 H         1 <0>         0.0617
     72 H39        -2.1974   -5.4184    3.6811 H         1 <0>         0.0554
     73 H40        -2.7301   -6.1187    2.1338 H         1 <0>         0.0548
     74 H41        -0.9929   -5.9699    2.4923 H         1 <0>         0.0568
     75 H42         1.3161    2.1374    3.0440 H         1 <0>         0.0437
     76 H43         1.6890    0.8285    4.1912 H         1 <0>         0.0461
     77 H44         2.5263    0.9022    2.6222 H         1 <0>         0.0754
     78 H45         0.4303   -3.4796    4.3289 H         1 <0>         0.0581
     79 H46        -1.3174   -3.7775    4.4872 H         1 <0>         0.0475
     80 H47        -0.2476   -5.0616    3.8749 H         1 <0>         0.0583
@<TRIPOS>BOND
     1    1    2 1
     2    1   40 1
     3    1   41 1
     4    1   42 1
     5    2    3 1
     6    2   33 1
     7    2    4 1
     8    4    5 1
     9    4   43 1
    10    4   44 1
    11    5    6 1
    12    5   45 1
    13    5   46 1
    14    6   31 1
    15    6    7 1
    16    6   37 1
    17    7    8 1
    18    7   47 1
    19    7   48 1
    20    8    9 1
    21    8   49 1
    22    8   50 1
    23    9   15 1
    24    9   10 1
    25    9   36 1
    26   10   11 2
    27   10   31 1
    28   11   12 1
    29   11   51 1
    30   12   13 1
    31   12   52 1
    32   12   53 1
    33   13   14 1
    34   13   20 1
    35   13   15 1
    36   15   16 1
    37   15   30 1
    38   16   17 1
    39   16   54 1
    40   16   55 1
    41   17   18 1
    42   17   56 1
    43   17   57 1
    44   18   19 1
    45   18   25 1
    46   18   20 1
    47   20   21 1
    48   20   29 1
    49   21   22 1
    50   21   58 1
    51   21   59 1
    52   22   23 1
    53   22   60 1
    54   22   61 1
    55   23   24 1
    56   23   25 1
    57   23   28 1
    58   25   26 1
    59   25   27 1
    60   26   62 1
    61   26   63 1
    62   26   64 1
    63   27   65 1
    64   27   66 1
    65   27   67 1
    66   28   68 1
    67   29   69 1
    68   29   70 1
    69   29   71 1
    70   30   72 1
    71   30   73 1
    72   30   74 1
    73   31   32 1
    74   31   33 1
    75   33   34 1
    76   33   35 1
    77   35   75 1
    78   35   76 1
    79   35   77 1
    80   36   78 1
    81   36   79 1
    82   36   80 1
    83   37   38 2
    84   37   39 1
@<TRIPOS>MOLECULE
ZINC20588143
   27    29     0     0     0
SMALL
USER_CHARGES
2-sulfanyl-3-(2,4,6-tribromophenyl)quinazolin-4-one
@<TRIPOS>ATOM
      1 C1          2.3808    1.4220   -0.0120 C.ar      1 <0>        -0.1843
      2 C2          1.1610    2.0863    0.0022 C.ar      1 <0>        -0.0665
      3 C3         -0.0169    1.3939    0.0097 C.ar      1 <0>        -0.1407
      4 C4          0.0021   -0.0041    0.0020 C.ar      1 <0>         0.2084
      5 C5          1.2455   -0.6766   -0.0135 C.ar      1 <0>        -0.2405
      6 C6          2.4322    0.0554   -0.0203 C.ar      1 <0>        -0.0246
      7 C7          1.2403   -2.1454   -0.0212 C.2       1 <0>         0.5581
      8 O1          2.2788   -2.7805   -0.0346 O.3       1 <0>        -0.5245
      9 N1          0.0377   -2.7663   -0.0122 N.pl3     1 <0>        -0.5116
     10 C8         -1.1186   -2.0363    0.0027 C.2       1 <0>         0.5431
     11 N2         -1.1363   -0.7262    0.0095 N.2       1 <0>        -0.5560
     12 S1         -2.6558   -2.8974    0.0127 S.2       1 <0>        -0.7432
     13 C9         -0.0229   -4.1665   -0.0187 C.ar      1 <0>         0.2426
     14 C10        -0.0356   -4.8681    1.1802 C.ar      1 <0>        -0.0596
     15 C11        -0.1018   -6.2485    1.1707 C.ar      1 <0>        -0.0444
     16 C12        -0.1433   -6.9322   -0.0314 C.ar      1 <0>        -0.0832
     17 C13        -0.1246   -6.2365   -1.2272 C.ar      1 <0>        -0.0446
     18 C14        -0.0648   -4.8558   -1.2240 C.ar      1 <0>        -0.0593
     19 Br1        -0.0392   -3.9058   -2.8588 Br        1 <0>        -0.0166
     20 Br2        -0.2252   -8.8214   -0.0401 Br        1 <0>        -0.0333
     21 Br3         0.0290   -3.9349    2.8236 Br        1 <0>        -0.0167
     22 H1          3.2987    1.9910   -0.0173 H         1 <0>         0.1195
     23 H2          1.1433    3.1662    0.0078 H         1 <0>         0.1211
     24 H3         -0.9579    1.9239    0.0170 H         1 <0>         0.1302
     25 H4          3.3849   -0.4530   -0.0318 H         1 <0>         0.1252
     26 H5         -0.1169   -6.7943    2.1025 H         1 <0>         0.1507
     27 H6         -0.1571   -6.7729   -2.1640 H         1 <0>         0.1507
@<TRIPOS>BOND
     1    1    6 ar
     2    1    2 ar
     3    1   22 1
     4    2    3 ar
     5    2   23 1
     6    3    4 ar
     7    3   24 1
     8    4   11 2
     9    4    5 ar
    10    5    6 ar
    11    5    7 2
    12    6   25 1
    13    7    8 1
    14    7    9 1
    15    9   10 1
    16    9   13 1
    17   10   11 1
    18   10   12 2
    19   13   18 ar
    20   13   14 ar
    21   14   15 ar
    22   14   21 1
    23   15   16 ar
    24   15   26 1
    25   16   17 ar
    26   16   20 1
    27   17   18 ar
    28   17   27 1
    29   18   19 1
@<TRIPOS>MOLECULE
ZINC33616260
   59    62     0     0     0
SMALL
USER_CHARGES
(5E)-5-[[1-(4-chlorophenyl)-2,5-dimethyl-pyrrol-3-yl]methylene]-1-[4-[(1R)-1-methylpropyl]phenyl]hexahydropyrimidine-2,4,6-trione
@<TRIPOS>ATOM
      1 C1         14.1681   -2.2640   -0.4645 C.3       1 <0>        -0.1537
      2 C2         12.6506   -2.1496   -0.6220 C.3       1 <0>        -0.1180
      3 C3         12.0562   -1.4945    0.6264 C.3       1 <0>        -0.0480
      4 H1         12.3481   -2.0627    1.5219 H         1 <0>         0.0755
      5 C4         12.5614   -0.0545    0.7363 C.3       1 <0>        -0.1456
      6 C5         10.5526   -1.4930    0.5254 C.ar      1 <0>        -0.0856
      7 C6          9.7962   -2.1452    1.4817 C.ar      1 <0>        -0.1108
      8 C7          8.4179   -2.1456    1.3918 C.ar      1 <0>        -0.1004
      9 C8          7.7921   -1.4907    0.3397 C.ar      1 <0>         0.1590
     10 C9          8.5545   -0.8419   -0.6223 C.ar      1 <0>        -0.1007
     11 C10         9.9322   -0.8398   -0.5237 C.ar      1 <0>        -0.1077
     12 N1          6.3938   -1.4892    0.2458 N.am      1 <0>        -0.5509
     13 C11         5.6959   -0.4873    0.8193 C.2       1 <0>         0.5665
     14 O1          6.2641    0.4098    1.4132 O.2       1 <0>        -0.5331
     15 C12         4.2262   -0.5086    0.7064 C.2       1 <0>        -0.2765
     16 C13         3.4432    0.4860    1.2696 C.2       1 <0>         0.0804
     17 C14         2.0600    0.5483    0.9771 C.2       1 <0>        -0.1510
     18 C15         1.4284    0.4503   -0.3475 C.2       1 <0>        -0.0752
     19 C16         0.1057    0.5619   -0.1462 C.2       1 <0>        -0.0097
     20 N2         -0.1354    0.7208    1.1910 N.pl3     1 <0>        -0.4020
     21 C17         1.0206    0.7154    1.8808 C.2       1 <0>         0.0611
     22 C18         1.1612    0.8648    3.3738 C.3       1 <0>        -0.0903
     23 C19        -1.4064    0.8736    1.7617 C.ar      1 <0>         0.1354
     24 C20        -1.7455    2.0612    2.3961 C.ar      1 <0>        -0.1021
     25 C21        -3.0007    2.2116    2.9523 C.ar      1 <0>        -0.0989
     26 C22        -3.9157    1.1753    2.8885 C.ar      1 <0>        -0.0344
     27 C23        -3.5781   -0.0114    2.2618 C.ar      1 <0>        -0.0974
     28 C24        -2.3263   -0.1645    1.6987 C.ar      1 <0>        -0.0973
     29 Cl1        -5.4900    1.3646    3.5954 Cl        1 <0>        -0.0670
     30 C25        -0.9473    0.5195   -1.2235 C.3       1 <0>        -0.0805
     31 C26         3.6257   -1.6383   -0.0269 C.2       1 <0>         0.5315
     32 O2          2.4195   -1.7277   -0.1579 O.3       1 <0>        -0.5404
     33 N3          4.4505   -2.5667   -0.5536 N.2       1 <0>        -0.7082
     34 C27         5.7808   -2.4836   -0.4114 C.2       1 <0>         0.6621
     35 O3          6.4677   -3.3562   -0.9051 O.2       1 <0>        -0.5841
     36 H2         14.5954   -2.7350   -1.3620 H         1 <0>         0.0521
     37 H3         14.3998   -2.8787    0.4178 H         1 <0>         0.0526
     38 H4         14.6001   -1.2606   -0.3360 H         1 <0>         0.0557
     39 H5         12.4189   -1.5349   -1.5043 H         1 <0>         0.0642
     40 H6         12.2186   -3.1530   -0.7505 H         1 <0>         0.0651
     41 H7         12.1341    0.4165    1.6338 H         1 <0>         0.0556
     42 H8         12.2544    0.5109   -0.1560 H         1 <0>         0.0568
     43 H9         13.6589   -0.0556    0.8100 H         1 <0>         0.0571
     44 H10        10.2835   -2.6545    2.2999 H         1 <0>         0.1209
     45 H11         7.8276   -2.6552    2.1390 H         1 <0>         0.1186
     46 H12         8.0707   -0.3357   -1.4445 H         1 <0>         0.1185
     47 H13        10.5257   -0.3316   -1.2693 H         1 <0>         0.1206
     48 H14         3.8967    1.2272    1.9441 H         1 <0>         0.1286
     49 H15         1.9295    0.3150   -1.2946 H         1 <0>         0.1401
     50 H16         0.1652    0.9809    3.8261 H         1 <0>         0.0632
     51 H17         1.7713    1.7523    3.5976 H         1 <0>         0.0805
     52 H18         1.6497   -0.0298    3.7874 H         1 <0>         0.0802
     53 H19        -1.0301    2.8684    2.4503 H         1 <0>         0.1394
     54 H20        -3.2667    3.1369    3.4416 H         1 <0>         0.1405
     55 H21        -4.2939   -0.8187    2.2133 H         1 <0>         0.1413
     56 H22        -2.0634   -1.0907    1.2094 H         1 <0>         0.1423
     57 H23        -1.9421    0.6356   -0.7686 H         1 <0>         0.0561
     58 H24        -0.8950   -0.4451   -1.7496 H         1 <0>         0.0768
     59 H25        -0.7734    1.3371   -1.9386 H         1 <0>         0.0709
@<TRIPOS>BOND
     1    1    2 1
     2    1   36 1
     3    1   37 1
     4    1   38 1
     5    2    3 1
     6    2   39 1
     7    2   40 1
     8    3    4 1
     9    3    5 1
    10    3    6 1
    11    5   41 1
    12    5   42 1
    13    5   43 1
    14    6   11 ar
    15    6    7 ar
    16    7    8 ar
    17    7   44 1
    18    8    9 ar
    19    8   45 1
    20    9   10 ar
    21    9   12 1
    22   10   11 ar
    23   10   46 1
    24   11   47 1
    25   12   34 am
    26   12   13 am
    27   13   14 2
    28   13   15 1
    29   15   16 2
    30   15   31 1
    31   16   17 1
    32   16   48 1
    33   17   21 2
    34   17   18 1
    35   18   19 2
    36   18   49 1
    37   19   20 1
    38   19   30 1
    39   20   21 1
    40   20   23 1
    41   21   22 1
    42   22   50 1
    43   22   51 1
    44   22   52 1
    45   23   28 ar
    46   23   24 ar
    47   24   25 ar
    48   24   53 1
    49   25   26 ar
    50   25   54 1
    51   26   27 ar
    52   26   29 1
    53   27   28 ar
    54   27   55 1
    55   28   56 1
    56   30   57 1
    57   30   58 1
    58   30   59 1
    59   31   32 1
    60   31   33 2
    61   33   34 1
    62   34   35 2
@<TRIPOS>MOLECULE
ZINC03947455
   80    84     0     0     0
SMALL
USER_CHARGES

@<TRIPOS>ATOM
      1 C1          1.1720    1.5641    0.6345 C.3       1 <0>        -0.1408
      2 C2          0.9787    0.0494    0.4685 C.3       1 <0>        -0.0567
      3 H1          1.5089   -0.2513   -0.4503 H         1 <0>         0.0319
      4 C3         -0.4998   -0.2377    0.2761 C.3       1 <0>        -0.1126
      5 C4         -0.8520   -1.7170    0.4444 C.3       1 <0>        -0.0935
      6 C5         -0.4154   -2.1296    1.8643 C.3       1 <0>        -0.1220
      7 C6         -0.8399   -3.5488    2.2053 C.3       1 <0>        -0.0767
      8 C7         -0.4200   -3.9593    3.6179 C.3       1 <0>        -0.0856
      9 C8          0.9178   -3.3988    4.0537 C.3       1 <0>         0.0015
     10 C9          1.7274   -2.9258    2.8866 C.2       1 <0>        -0.0459
     11 C10         2.9468   -3.3243    2.6312 C.2       1 <0>        -0.2070
     12 C11         3.6526   -4.3982    3.4096 C.3       1 <0>        -0.0691
     13 C12         2.5717   -5.2623    4.0631 C.3       1 <0>        -0.0634
     14 H2          1.9241   -5.6449    3.2363 H         1 <0>         0.0659
     15 C13         1.7017   -4.3906    4.9461 C.3       1 <0>        -0.0292
     16 C14         0.7234   -5.2120    5.7689 C.3       1 <0>        -0.1138
     17 C15         1.3607   -6.4044    6.4813 C.3       1 <0>        -0.1044
     18 C16         2.8576   -6.4866    6.2374 C.3       1 <0>        -0.0615
     19 H3          3.3222   -5.5701    6.6679 H         1 <0>         0.0729
     20 C17         3.1646   -6.4898    4.7510 C.3       1 <0>        -0.0326
     21 C18         4.6794   -6.5246    4.5316 C.3       1 <0>        -0.1059
     22 C19         5.2740   -7.7529    5.2196 C.3       1 <0>        -0.1500
     23 C20         5.0095   -7.6961    6.7183 C.3       1 <0>         0.1183
     24 H4          5.5132   -6.8191    7.1383 H         1 <0>         0.0472
     25 C21         3.5171   -7.6019    7.0356 C.3       1 <0>        -0.0410
     26 C22         3.4147   -7.2337    8.5364 C.3       1 <0>        -0.1470
     27 C23         2.8459   -8.9577    6.8593 C.3       1 <0>        -0.1374
     28 O1          5.5462   -8.8680    7.3411 O.3       1 <0>        -0.5662
     29 C24         2.5441   -7.7113    4.0490 C.3       1 <0>        -0.1501
     30 C25         2.5314   -3.4873    5.8748 C.3       1 <0>        -0.1446
     31 C26         1.0993   -2.0391    1.8472 C.3       1 <0>        -0.0137
     32 H5          1.3826   -2.5730    0.8709 H         1 <0>         0.0298
     33 C27         1.6458   -0.6595    1.6452 C.3       1 <0>        -0.0338
     34 H6          2.7252   -0.7810    1.3564 H         1 <0>         0.0239
     35 C28         1.6566    0.2213    2.8870 C.3       1 <0>        -0.1736
     36 C29         0.6839   -2.2191    5.0096 C.3       1 <0>        -0.1632
     37 C30        -1.1187   -1.1917    2.8052 C.2       1 <0>         0.5171
     38 O2         -1.7995   -1.6365    3.7136 O.co2     1 <0>        -0.6847
     39 O3         -1.0083    0.0138    2.6600 O.co2     1 <0>        -0.6739
     40 H7          2.2357    1.7878    0.7167 H         1 <0>         0.0379
     41 H8          0.7581    2.0804   -0.2317 H         1 <0>         0.0369
     42 H9          0.6595    1.8991    1.5363 H         1 <0>         0.0726
     43 H10        -1.1022    0.4028    0.9107 H         1 <0>         0.1201
     44 H11        -0.7592    0.0440   -0.7644 H         1 <0>         0.0119
     45 H12        -1.9258   -1.8662    0.3491 H         1 <0>         0.0484
     46 H13        -0.3165   -2.3237   -0.2804 H         1 <0>         0.0395
     47 H14        -1.9298   -3.6257    2.1189 H         1 <0>         0.0512
     48 H15        -0.3934   -4.2398    1.4830 H         1 <0>         0.0263
     49 H16        -1.1944   -3.6685    4.3309 H         1 <0>         0.0840
     50 H17        -0.3663   -5.0584    3.6226 H         1 <0>         0.0356
     51 H18         3.4676   -2.8558    1.8145 H         1 <0>         0.0928
     52 H19         4.2223   -5.0114    2.7032 H         1 <0>         0.0597
     53 H20         4.3284   -3.9677    4.1314 H         1 <0>         0.0685
     54 H21         0.2640   -4.5694    6.5342 H         1 <0>         0.0585
     55 H22        -0.0862   -5.5934    5.1438 H         1 <0>         0.0690
     56 H23         1.1576   -6.2981    7.5537 H         1 <0>         0.0552
     57 H24         0.8595   -7.3149    6.1404 H         1 <0>         0.0580
     58 H25         4.8897   -6.5784    3.4641 H         1 <0>         0.0675
     59 H26         5.1284   -5.6266    4.9496 H         1 <0>         0.0649
     60 H27         4.8774   -8.6676    4.7930 H         1 <0>         0.0724
     61 H28         6.3617   -7.7500    5.0531 H         1 <0>         0.0537
     62 H29         2.3656   -7.1375    8.8161 H         1 <0>         0.0561
     63 H30         3.8801   -8.0166    9.1352 H         1 <0>         0.0575
     64 H31         3.9263   -6.2877    8.7141 H         1 <0>         0.0485
     65 H32         3.0047   -9.3121    5.8408 H         1 <0>         0.0592
     66 H33         3.2759   -9.6703    7.5631 H         1 <0>         0.0575
     67 H34         1.7767   -8.8611    7.0478 H         1 <0>         0.0527
     68 H35         6.5000   -8.9744    7.2230 H         1 <0>         0.3713
     69 H36         2.7384   -7.6525    2.9781 H         1 <0>         0.0497
     70 H37         2.9865   -8.6238    4.4489 H         1 <0>         0.0602
     71 H38         1.4682   -7.7227    4.2230 H         1 <0>         0.0563
     72 H39         1.8834   -3.0605    6.6404 H         1 <0>         0.0587
     73 H40         3.3154   -4.0770    6.3499 H         1 <0>         0.0441
     74 H41         2.9831   -2.6845    5.2922 H         1 <0>         0.0598
     75 H42         0.6409    0.5483    3.1094 H         1 <0>         0.1234
     76 H43         2.0488   -0.3457    3.7313 H         1 <0>         0.0350
     77 H44         2.2879    1.0920    2.7094 H         1 <0>         0.0298
     78 H45         0.2422   -2.5846    5.9366 H         1 <0>         0.0430
     79 H46         1.6353   -1.7336    5.2271 H         1 <0>         0.0442
     80 H47         0.0083   -1.5020    4.5431 H         1 <0>         0.0998
@<TRIPOS>BOND
     1    1    2 1
     2    1   40 1
     3    1   41 1
     4    1   42 1
     5    2    3 1
     6    2   33 1
     7    2    4 1
     8    4    5 1
     9    4   43 1
    10    4   44 1
    11    5    6 1
    12    5   45 1
    13    5   46 1
    14    6   31 1
    15    6    7 1
    16    6   37 1
    17    7    8 1
    18    7   47 1
    19    7   48 1
    20    8    9 1
    21    8   49 1
    22    8   50 1
    23    9   15 1
    24    9   10 1
    25    9   36 1
    26   10   11 2
    27   10   31 1
    28   11   12 1
    29   11   51 1
    30   12   13 1
    31   12   52 1
    32   12   53 1
    33   13   14 1
    34   13   20 1
    35   13   15 1
    36   15   16 1
    37   15   30 1
    38   16   17 1
    39   16   54 1
    40   16   55 1
    41   17   18 1
    42   17   56 1
    43   17   57 1
    44   18   19 1
    45   18   25 1
    46   18   20 1
    47   20   21 1
    48   20   29 1
    49   21   22 1
    50   21   58 1
    51   21   59 1
    52   22   23 1
    53   22   60 1
    54   22   61 1
    55   23   24 1
    56   23   25 1
    57   23   28 1
    58   25   26 1
    59   25   27 1
    60   26   62 1
    61   26   63 1
    62   26   64 1
    63   27   65 1
    64   27   66 1
    65   27   67 1
    66   28   68 1
    67   29   69 1
    68   29   70 1
    69   29   71 1
    70   30   72 1
    71   30   73 1
    72   30   74 1
    73   31   32 1
    74   31   33 1
    75   33   34 1
    76   33   35 1
    77   35   75 1
    78   35   76 1
    79   35   77 1
    80   36   78 1
    81   36   79 1
    82   36   80 1
    83   37   38 2
    84   37   39 1
@<TRIPOS>MOLECULE
ZINC57505508
   42    45     0     0     0
SMALL
USER_CHARGES

@<TRIPOS>ATOM
      1 C1          5.6044   -0.2183    4.1360 C.ar      1 <0>        -0.1251
      2 C2          5.6029    0.8300    3.2338 C.ar      1 <0>        -0.1043
      3 C3          5.0959    0.6481    1.9624 C.ar      1 <0>        -0.0995
      4 C4          4.5869   -0.5902    1.5897 C.ar      1 <0>        -0.0944
      5 C5          4.5901   -1.6413    2.4989 C.ar      1 <0>        -0.1224
      6 C6          5.0986   -1.4520    3.7686 C.ar      1 <0>        -0.0990
      7 S1          3.9384   -0.8268   -0.0315 S.3       1 <0>         0.0158
      8 C7          3.6094   -2.5560   -0.1108 C.2       1 <0>        -0.1501
      9 C8          2.3640   -2.9882   -0.2021 C.2       1 <0>        -0.0174
     10 Cl1         1.0626   -1.8536   -0.3834 Cl        1 <0>        -0.0576
     11 C9          4.7484   -3.5422   -0.0745 C.3       1 <0>        -0.0621
     12 S2          5.5953   -3.5472   -1.6787 S.3       1 <0>        -0.0021
     13 C10         6.8826   -4.7333   -1.4774 C.ar      1 <0>         0.3536
     14 N1          7.0095   -5.3671   -0.3170 N.ar      1 <0>        -0.6232
     15 C11         7.9542   -6.2652   -0.1067 C.ar      1 <0>         0.4871
     16 O1          8.0498   -6.8904    1.0909 O.3       1 <0>        -0.6675
     17 C12         8.8692   -6.5692   -1.1506 C.ar      1 <0>        -0.2967
     18 C13         9.9857   -7.5180   -1.1421 C.2       1 <0>        -0.0184
     19 C14        10.7090   -7.6212   -2.2743 C.2       1 <0>        -0.2159
     20 S3          9.9622   -6.4800   -3.4071 S.3       1 <0>         0.0348
     21 C15         8.6757   -5.8614   -2.3542 C.ar      1 <0>         0.1637
     22 N2          7.7037   -4.9808   -2.4892 N.ar      1 <0>        -0.5517
     23 C16        11.8905   -8.5100   -2.5189 C.3       1 <0>        -0.0220
     24 C17        12.3975   -9.0260   -1.1647 C.3       1 <0>        -0.1124
     25 C18        11.2018   -9.5376   -0.3560 C.3       1 <0>        -0.1199
     26 C19        10.3306   -8.3601    0.0832 C.3       1 <0>        -0.0554
     27 H1          6.0057   -0.0744    5.1283 H         1 <0>         0.1231
     28 H2          5.9983    1.7922    3.5242 H         1 <0>         0.1261
     29 H3          5.0947    1.4673    1.2585 H         1 <0>         0.1274
     30 H4          4.1950   -2.6048    2.2128 H         1 <0>         0.1248
     31 H5          5.1014   -2.2683    4.4757 H         1 <0>         0.1257
     32 H6          2.1557   -4.0472   -0.1639 H         1 <0>         0.1688
     33 H7          5.4522   -3.2558    0.7070 H         1 <0>         0.1084
     34 H8          4.3596   -4.5388    0.1342 H         1 <0>         0.1066
     35 H9         11.5933   -9.3517   -3.1445 H         1 <0>         0.0711
     36 H10        12.6792   -7.9441   -3.0147 H         1 <0>         0.0707
     37 H11        13.1054   -9.8392   -1.3250 H         1 <0>         0.0651
     38 H12        12.8850   -8.2150   -0.6236 H         1 <0>         0.0646
     39 H13        10.6112  -10.2156   -0.9721 H         1 <0>         0.0605
     40 H14        11.5612  -10.0703    0.5245 H         1 <0>         0.0616
     41 H15        10.8757   -7.7503    0.8037 H         1 <0>         0.0700
     42 H16         9.4139   -8.7347    0.5387 H         1 <0>         0.0878
@<TRIPOS>BOND
     1    1    6 ar
     2    1    2 ar
     3    1   27 1
     4    2    3 ar
     5    2   28 1
     6    3    4 ar
     7    3   29 1
     8    4    5 ar
     9    4    7 1
    10    5    6 ar
    11    5   30 1
    12    6   31 1
    13    7    8 1
    14    8    9 2
    15    8   11 1
    16    9   10 1
    17    9   32 1
    18   11   12 1
    19   11   33 1
    20   11   34 1
    21   12   13 1
    22   13   22 ar
    23   13   14 ar
    24   14   15 ar
    25   15   16 1
    26   15   17 ar
    27   17   21 ar
    28   17   18 1
    29   18   26 1
    30   18   19 2
    31   19   20 1
    32   19   23 1
    33   20   21 1
    34   21   22 ar
    35   23   24 1
    36   23   35 1
    37   23   36 1
    38   24   25 1
    39   24   37 1
    40   24   38 1
    41   25   26 1
    42   25   39 1
    43   25   40 1
    44   26   41 1
    45   26   42 1
@<TRIPOS>MOLECULE
ZINC39889222
   55    58     0     0     0
SMALL
USER_CHARGES

@<TRIPOS>ATOM
      1 C1         -0.0187    1.5258    0.0104 C.3       1 <0>        -0.1523
      2 C2          0.0021   -0.0041    0.0020 C.3       1 <0>        -0.0811
      3 C3         -1.4333   -0.5336    0.0129 C.3       1 <0>        -0.1413
      4 C4          0.7182   -0.4975   -1.2568 C.3       1 <0>        -0.1012
      5 S1          2.4600    0.0058   -1.1981 S.3       1 <0>        -0.0053
      6 C5          3.1377   -0.6285   -2.6958 C.2       1 <0>         0.4336
      7 N1          2.3428   -1.2912   -3.5275 N.2       1 <0>        -0.6822
      8 C6          2.7696   -1.7122   -4.7089 C.2       1 <0>         0.5256
      9 O1          2.0228   -2.3571   -5.4197 O.2       1 <0>        -0.5024
     10 C7          4.1552   -1.4066   -5.1828 C.3       1 <0>        -0.2186
     11 H1          4.0860   -0.6702   -5.9834 H         1 <0>         0.1181
     12 C8          4.8556   -2.6439   -5.7348 C.3       1 <0>         0.0625
     13 H2          4.3715   -2.9588   -6.6592 H         1 <0>         0.1040
     14 C9          6.3015   -2.2861   -6.0114 C.2       1 <0>        -0.3855
     15 C10         6.9488   -1.3566   -5.1924 C.2       1 <0>         0.3059
     16 C11         8.4003   -1.0136   -5.4314 C.3       1 <0>        -0.0739
     17 C12         9.1061   -2.2109   -6.0726 C.3       1 <0>        -0.0580
     18 C13         8.3728   -2.5757   -7.3673 C.3       1 <0>        -0.1249
     19 C14         6.9339   -2.8801   -7.0492 C.2       1 <0>         0.3520
     20 O2          6.2624   -3.7613   -7.8128 O.3       1 <0>        -0.6045
     21 C15         9.0740   -3.4010   -5.1115 C.3       1 <0>        -0.1472
     22 C16        10.5566   -1.8422   -6.3905 C.3       1 <0>        -0.1373
     23 N2          6.3054   -0.7415   -4.2178 N.2       1 <0>        -0.6071
     24 C17         4.9895   -0.8197   -4.0780 C.2       1 <0>         0.4926
     25 N3          4.4283   -0.4210   -2.9552 N.2       1 <0>        -0.6140
     26 C18         4.7916   -3.7584   -4.7224 C.ar      1 <0>        -0.0410
     27 C19         5.3511   -3.5872   -3.4699 C.ar      1 <0>        -0.1174
     28 C20         5.2922   -4.6089   -2.5409 C.ar      1 <0>        -0.0910
     29 C21         4.6733   -5.8028   -2.8646 C.ar      1 <0>        -0.0954
     30 C22         4.1135   -5.9737   -4.1179 C.ar      1 <0>        -0.0941
     31 C23         4.1683   -4.9495   -5.0445 C.ar      1 <0>        -0.0897
     32 Br1         4.5929   -7.2013   -1.5942 Br        1 <0>        -0.0694
     33 H3          1.0039    1.9031    0.0027 H         1 <0>         0.0641
     34 H4         -0.5459    1.8868   -0.8726 H         1 <0>         0.0574
     35 H5         -0.5289    1.8773    0.9072 H         1 <0>         0.0563
     36 H6          0.5293   -0.3651    0.8851 H         1 <0>         0.0790
     37 H7         -1.9605   -0.1726   -0.8702 H         1 <0>         0.0574
     38 H8         -1.4185   -1.6235    0.0069 H         1 <0>         0.0576
     39 H9         -1.9435   -0.1821    0.9097 H         1 <0>         0.0586
     40 H10         0.6556   -1.5845   -1.3079 H         1 <0>         0.0943
     41 H11         0.2444   -0.0644   -2.1377 H         1 <0>         0.0929
     42 H12         8.4657   -0.1534   -6.0977 H         1 <0>         0.0911
     43 H13         8.8788   -0.7753   -4.4815 H         1 <0>         0.0927
     44 H14         8.4229   -1.7380   -8.0629 H         1 <0>         0.0882
     45 H15         8.8401   -3.4522   -7.8163 H         1 <0>         0.0840
     46 H16         8.0389   -3.6646   -4.8942 H         1 <0>         0.0650
     47 H17         9.5771   -4.2522   -5.5702 H         1 <0>         0.0539
     48 H18         9.5831   -3.1339   -4.1854 H         1 <0>         0.0559
     49 H19        11.0720   -1.5684   -5.4699 H         1 <0>         0.0585
     50 H20        11.0570   -2.6962   -6.8469 H         1 <0>         0.0575
     51 H21        10.5741   -0.9991   -7.0812 H         1 <0>         0.0564
     52 H22         5.8347   -2.6551   -3.2174 H         1 <0>         0.1367
     53 H23         5.7297   -4.4752   -1.5626 H         1 <0>         0.1258
     54 H24         3.6301   -6.9057   -4.3710 H         1 <0>         0.1272
     55 H25         3.7276   -5.0813   -6.0217 H         1 <0>         0.1301
@<TRIPOS>BOND
     1    1    2 1
     2    1   33 1
     3    1   34 1
     4    1   35 1
     5    2    3 1
     6    2    4 1
     7    2   36 1
     8    3   37 1
     9    3   38 1
    10    3   39 1
    11    4    5 1
    12    4   40 1
    13    4   41 1
    14    5    6 1
    15    6   25 1
    16    6    7 2
    17    7    8 1
    18    8    9 2
    19    8   10 1
    20   10   11 1
    21   10   24 1
    22   10   12 1
    23   12   13 1
    24   12   14 1
    25   12   26 1
    26   14   19 2
    27   14   15 1
    28   15   16 1
    29   15   23 2
    30   16   17 1
    31   16   42 1
    32   16   43 1
    33   17   18 1
    34   17   21 1
    35   17   22 1
    36   18   19 1
    37   18   44 1
    38   18   45 1
    39   19   20 1
    40   21   46 1
    41   21   47 1
    42   21   48 1
    43   22   49 1
    44   22   50 1
    45   22   51 1
    46   23   24 1
    47   24   25 2
    48   26   31 ar
    49   26   27 ar
    50   27   28 ar
    51   27   52 1
    52   28   29 ar
    53   28   53 1
    54   29   30 ar
    55   29   32 1
    56   30   31 ar
    57   30   54 1
    58   31   55 1
@<TRIPOS>MOLECULE
ZINC01265564
   53    57     0     0     0
SMALL
USER_CHARGES
(5Z)-5-[(1-benzylindol-3-yl)methylene]-1-[(4-fluorophenyl)methyl]-2-thioxo-hexahydropyrimidine-4,6-dione
@<TRIPOS>ATOM
      1 C1         -1.4850    2.0837    5.5082 C.ar      1 <0>        -0.1118
      2 C2         -0.5640    3.0110    5.0580 C.ar      1 <0>        -0.1197
      3 C3         -0.3727    3.1925    3.7010 C.ar      1 <0>        -0.0991
      4 C4         -1.1018    2.4461    2.7943 C.ar      1 <0>        -0.1145
      5 C5         -2.0263    1.5222    3.2445 C.ar      1 <0>        -0.0976
      6 C6         -2.2144    1.3376    4.6015 C.ar      1 <0>        -0.1211
      7 C7         -0.8933    2.6439    1.3150 C.3       1 <0>         0.1441
      8 N1          0.1570    1.7375    0.8443 N.pl3     1 <0>        -0.4566
      9 C8          1.4535    2.0724    0.7142 C.2       1 <0>         0.1819
     10 C9          2.1676    0.9849    0.2417 C.2       1 <0>        -0.2132
     11 C10         1.1874   -0.1077    0.0756 C.ar      1 <0>        -0.0604
     12 C11        -0.0502    0.4249    0.4684 C.ar      1 <0>         0.0857
     13 C12        -1.1835   -0.3801    0.4212 C.ar      1 <0>        -0.1191
     14 C13        -1.0826   -1.6861   -0.0083 C.ar      1 <0>        -0.1126
     15 C14         0.1413   -2.2097   -0.3958 C.ar      1 <0>        -0.1373
     16 C15         1.2758   -1.4271   -0.3558 C.ar      1 <0>        -0.0812
     17 C16         3.5508    0.9308   -0.0264 C.2       1 <0>         0.1210
     18 C17         4.1652    1.9671   -0.7159 C.2       1 <0>        -0.3121
     19 C18         5.6314    2.0442   -0.8416 C.2       1 <0>         0.5335
     20 O1          6.3469    1.1969   -0.3408 O.3       1 <0>        -0.5251
     21 N2          6.1590    3.0797   -1.5265 N.2       1 <0>        -0.6281
     22 C19         5.3826    4.0201   -2.0827 C.2       1 <0>         0.5478
     23 S1          6.1403    5.2980   -2.9335 S.2       1 <0>        -0.7080
     24 N3          4.0443    4.0132   -2.0077 N.am      1 <0>        -0.5400
     25 C20         3.3795    3.0349   -1.3592 C.2       1 <0>         0.5644
     26 O2          2.1640    3.0369   -1.3026 O.2       1 <0>        -0.5179
     27 C21         3.2859    5.0891   -2.6509 C.3       1 <0>         0.1349
     28 C22         2.9626    4.6971   -4.0697 C.ar      1 <0>        -0.1108
     29 C23         3.8349    5.0218   -5.0918 C.ar      1 <0>        -0.0556
     30 C24         3.5418    4.6586   -6.3926 C.ar      1 <0>        -0.1646
     31 C25         2.3689    3.9785   -6.6733 C.ar      1 <0>         0.0944
     32 C26         1.4935    3.6584   -5.6495 C.ar      1 <0>        -0.1698
     33 C27         1.7912    4.0180   -4.3487 C.ar      1 <0>        -0.0712
     34 F1          2.0791    3.6270   -7.9452 F         1 <0>        -0.1473
     35 H1         -1.6344    1.9419    6.5684 H         1 <0>         0.1230
     36 H2          0.0059    3.5940    5.7664 H         1 <0>         0.1248
     37 H3          0.3466    3.9173    3.3492 H         1 <0>         0.1233
     38 H4         -2.5991    0.9422    2.5361 H         1 <0>         0.1216
     39 H5         -2.9338    0.6129    4.9533 H         1 <0>         0.1236
     40 H6         -1.8303    2.4283    0.7806 H         1 <0>         0.0983
     41 H7         -0.5928    3.6845    1.1229 H         1 <0>         0.1042
     42 H8          1.8726    3.0411    0.9429 H         1 <0>         0.1686
     43 H9         -2.1419    0.0178    0.7205 H         1 <0>         0.1142
     44 H10        -1.9654   -2.3073   -0.0432 H         1 <0>         0.1219
     45 H11         0.2063   -3.2345   -0.7306 H         1 <0>         0.1215
     46 H12         2.2285   -1.8366   -0.6577 H         1 <0>         0.1225
     47 H13         4.1430    0.0674    0.3108 H         1 <0>         0.1439
     48 H14         2.3518    5.2615   -2.0962 H         1 <0>         0.0891
     49 H15         3.8866    6.0106   -2.6529 H         1 <0>         0.1283
     50 H16         4.7477    5.5560   -4.8731 H         1 <0>         0.1667
     51 H17         4.2254    4.9088   -7.1904 H         1 <0>         0.1320
     52 H18         0.5781    3.1282   -5.8673 H         1 <0>         0.1275
     53 H19         1.1084    3.7687   -3.5500 H         1 <0>         0.1318
@<TRIPOS>BOND
     1    1    6 ar
     2    1    2 ar
     3    1   35 1
     4    2    3 ar
     5    2   36 1
     6    3    4 ar
     7    3   37 1
     8    4    5 ar
     9    4    7 1
    10    5    6 ar
    11    5   38 1
    12    6   39 1
    13    7    8 1
    14    7   40 1
    15    7   41 1
    16    8   12 1
    17    8    9 1
    18    9   10 2
    19    9   42 1
    20   10   11 1
    21   10   17 1
    22   11   16 ar
    23   11   12 ar
    24   12   13 ar
    25   13   14 ar
    26   13   43 1
    27   14   15 ar
    28   14   44 1
    29   15   16 ar
    30   15   45 1
    31   16   46 1
    32   17   18 2
    33   17   47 1
    34   18   25 1
    35   18   19 1
    36   19   20 1
    37   19   21 2
    38   21   22 1
    39   22   23 2
    40   22   24 1
    41   24   25 am
    42   24   27 1
    43   25   26 2
    44   27   28 1
    45   27   48 1
    46   27   49 1
    47   28   33 ar
    48   28   29 ar
    49   29   30 ar
    50   29   50 1
    51   30   31 ar
    52   30   51 1
    53   31   32 ar
    54   31   34 1
    55   32   33 ar
    56   32   52 1
    57   33   53 1
@<TRIPOS>MOLECULE
ZINC33438597
   50    55     0     0     0
SMALL
USER_CHARGES
(2R)-3-(benzofuran-2-carbonyl)-4-hydroxy-1-(6-methyl-1,3-benzothiazol-2-yl)-2-(3-pyridyl)-2H-pyrrol-5-one
@<TRIPOS>ATOM
      1 C1          1.0829    3.5908    0.2351 C.3       1 <0>        -0.1095
      2 C2          1.0996    2.0849    0.1804 C.ar      1 <0>        -0.0860
      3 C3          2.3035    1.3999    0.0986 C.ar      1 <0>        -0.1059
      4 C4          2.3467    0.0313    0.0471 C.ar      1 <0>        -0.0726
      5 C5          1.1556   -0.7308    0.0760 C.ar      1 <0>         0.1134
      6 C6         -0.0514    0.0005    0.1592 C.ar      1 <0>        -0.1718
      7 C7         -0.0847    1.3718    0.2103 C.ar      1 <0>        -0.0564
      8 S1         -1.2744   -1.2882    0.1702 S.3       1 <0>         0.0499
      9 C8         -0.1454   -2.6699    0.0671 C.2       1 <0>         0.4112
     10 N1          1.0241   -2.0740    0.0337 N.2       1 <0>        -0.5488
     11 N2         -0.4312   -4.0232    0.0313 N.am      1 <0>        -0.5051
     12 C9          0.5501   -5.1113   -0.0542 C.3       1 <0>         0.2762
     13 H1          1.2453   -5.0598    0.7967 H         1 <0>         0.0920
     14 C10        -0.2459   -6.3955   -0.0637 C.2       1 <0>        -0.4862
     15 C11        -1.5517   -6.0458    0.0101 C.2       1 <0>         0.2803
     16 C12        -1.6575   -4.5750    0.0745 C.2       1 <0>         0.5156
     17 O1         -2.6989   -3.9538    0.1526 O.2       1 <0>        -0.4794
     18 O2         -2.5946   -6.9084    0.0269 O.3       1 <0>        -0.6265
     19 C13         0.2922   -7.7579   -0.1377 C.2       1 <0>         0.5426
     20 O3          0.0663   -8.4497   -1.1145 O.2       1 <0>        -0.4368
     21 C14         1.1035   -8.2882    0.9662 C.2       1 <0>        -0.0070
     22 C15         1.7319   -9.4955    0.9672 C.2       1 <0>        -0.1505
     23 C16         2.4123   -9.5961    2.2567 C.ar      1 <0>        -0.1392
     24 C17         3.2146  -10.5678    2.8614 C.ar      1 <0>        -0.0648
     25 C18         3.7073  -10.3530    4.1173 C.ar      1 <0>        -0.1433
     26 C19         3.4162   -9.1770    4.7957 C.ar      1 <0>        -0.0932
     27 C20         2.6271   -8.2063    4.2170 C.ar      1 <0>        -0.1081
     28 C21         2.1141   -8.4018    2.9402 C.ar      1 <0>         0.0618
     29 O4          1.3337   -7.6547    2.1349 O.3       1 <0>        -0.1646
     30 C22         1.3519   -4.9875   -1.3242 C.ar      1 <0>        -0.1234
     31 C23         2.7317   -5.1245   -1.2996 C.ar      1 <0>        -0.0570
     32 C24         3.4277   -5.0074   -2.4927 C.ar      1 <0>        -0.1742
     33 C25         2.7293   -4.7491   -3.6573 C.ar      1 <0>         0.0899
     34 N3          1.4172   -4.6199   -3.6423 N.ar      1 <0>        -0.4841
     35 C26         0.7221   -4.7304   -2.5269 C.ar      1 <0>         0.1272
     36 H2          2.1147    3.9704    0.2004 H         1 <0>         0.0670
     37 H3          0.6029    3.9185    1.1690 H         1 <0>         0.0701
     38 H4          0.5189    3.9827   -0.6242 H         1 <0>         0.0702
     39 H5          3.2277    1.9582    0.0749 H         1 <0>         0.1286
     40 H6          3.3008   -0.4709   -0.0160 H         1 <0>         0.1290
     41 H7         -1.0301    1.8906    0.2691 H         1 <0>         0.1289
     42 H8          1.7295  -10.2296    0.1751 H         1 <0>         0.1655
     43 H9          3.4436  -11.4845    2.3383 H         1 <0>         0.1270
     44 H10         4.3270  -11.1032    4.5859 H         1 <0>         0.1271
     45 H11         3.8131   -9.0208    5.7879 H         1 <0>         0.1328
     46 H12         2.4079   -7.2957    4.7546 H         1 <0>         0.1327
     47 H13         3.2513   -5.3216   -0.3735 H         1 <0>         0.1308
     48 H14         4.5025   -5.1119   -2.5114 H         1 <0>         0.1310
     49 H15         3.2645   -4.6524   -4.5904 H         1 <0>         0.1503
     50 H16        -0.3517   -4.6183   -2.5539 H         1 <0>         0.1435
@<TRIPOS>BOND
     1    1    2 1
     2    1   36 1
     3    1   37 1
     4    1   38 1
     5    2    7 ar
     6    2    3 ar
     7    3    4 ar
     8    3   39 1
     9    4    5 ar
    10    4   40 1
    11    5   10 1
    12    5    6 ar
    13    6    7 ar
    14    6    8 1
    15    7   41 1
    16    8    9 1
    17    9   10 2
    18    9   11 1
    19   11   16 am
    20   11   12 1
    21   12   13 1
    22   12   14 1
    23   12   30 1
    24   14   15 2
    25   14   19 1
    26   15   16 1
    27   15   18 1
    28   16   17 2
    29   19   20 2
    30   19   21 1
    31   21   29 1
    32   21   22 2
    33   22   23 1
    34   22   42 1
    35   23   28 ar
    36   23   24 ar
    37   24   25 ar
    38   24   43 1
    39   25   26 ar
    40   25   44 1
    41   26   27 ar
    42   26   45 1
    43   27   28 ar
    44   27   46 1
    45   28   29 1
    46   30   35 ar
    47   30   31 ar
    48   31   32 ar
    49   31   47 1
    50   32   33 ar
    51   32   48 1
    52   33   34 ar
    53   33   49 1
    54   34   35 ar
    55   35   50 1
@<TRIPOS>MOLECULE
ZINC36558970
   60    64     0     0     0
SMALL
USER_CHARGES

@<TRIPOS>ATOM
      1 C1          4.5071   -0.6758   -0.9046 C.3       1 <0>        -0.1079
      2 C2          4.6933   -0.6438    0.5905 C.ar      1 <0>        -0.0816
      3 C3          5.6128    0.2220    1.1536 C.ar      1 <0>        -0.1278
      4 C4          5.7865    0.2543    2.5251 C.ar      1 <0>        -0.0827
      5 C5          5.0419   -0.5792    3.3367 C.ar      1 <0>        -0.1093
      6 C6          4.1180   -1.4496    2.7742 C.ar      1 <0>         0.1702
      7 C7          3.9415   -1.4753    1.3973 C.ar      1 <0>        -0.0948
      8 N1          3.3611   -2.2965    3.5950 N.am      1 <0>        -0.5335
      9 C8          2.5014   -1.7603    4.4873 C.2       1 <0>         0.5597
     10 O1          2.3731   -0.5542    4.5898 O.2       1 <0>        -0.5011
     11 C9          1.7234   -2.6824    5.3324 C.2       1 <0>        -0.2827
     12 C10         0.8193   -2.2153    6.2727 C.2       1 <0>         0.0934
     13 C11         0.4668   -0.8446    6.2957 C.2       1 <0>        -0.1729
     14 C12         0.1502    0.0047    5.1416 C.2       1 <0>        -0.0592
     15 C13        -0.1265    1.2362    5.6388 C.2       1 <0>         0.0275
     16 N2         -0.0026    1.2022    7.0084 N.pl3     1 <0>        -0.3954
     17 C14         0.3445   -0.0323    7.4160 C.2       1 <0>         0.0857
     18 C15         0.5668   -0.4597    8.8439 C.3       1 <0>        -0.0916
     19 C16        -0.2131    2.2955    7.8582 C.ar      1 <0>         0.1228
     20 C17         0.6708    3.3664    7.8462 C.ar      1 <0>        -0.1021
     21 C18         0.4605    4.4430    8.6853 C.ar      1 <0>        -0.1069
     22 C19        -0.6290    4.4553    9.5368 C.ar      1 <0>        -0.1136
     23 C20        -1.5111    3.3904    9.5511 C.ar      1 <0>        -0.1091
     24 C21        -1.3094    2.3134    8.7103 C.ar      1 <0>        -0.1157
     25 C22        -0.4997    2.4226    4.8385 C.ar      1 <0>        -0.0023
     26 C23        -0.1860    2.4783    3.4799 C.ar      1 <0>        -0.1005
     27 C24        -0.5374    3.5877    2.7388 C.ar      1 <0>        -0.1136
     28 C25        -1.1993    4.6435    3.3398 C.ar      1 <0>        -0.1282
     29 C26        -1.5128    4.5947    4.6865 C.ar      1 <0>        -0.1169
     30 C27        -1.1721    3.4886    5.4375 C.ar      1 <0>        -0.1265
     31 C28         1.9511   -4.1284    5.1309 C.2       1 <0>         0.5417
     32 N3          2.8421   -4.5108    4.2015 N.2       1 <0>        -0.6710
     33 C29         3.5017   -3.6441    3.4746 C.2       1 <0>         0.6359
     34 O2          4.3728   -4.1134    2.5601 O.3       1 <0>        -0.6494
     35 O3          1.3451   -4.9544    5.7926 O.2       1 <0>        -0.5487
     36 C30         6.7895    1.1994    3.1347 C.3       1 <0>        -0.1064
     37 H1          3.7390    0.0428   -1.1906 H         1 <0>         0.0656
     38 H2          5.4464   -0.4172   -1.3934 H         1 <0>         0.0633
     39 H3          4.2012   -1.6760   -1.2114 H         1 <0>         0.0662
     40 H4          6.1966    0.8742    0.5210 H         1 <0>         0.1175
     41 H5          5.1786   -0.5540    4.4077 H         1 <0>         0.1155
     42 H6          3.2202   -2.1480    0.9572 H         1 <0>         0.1209
     43 H7          0.3835   -2.8971    6.9880 H         1 <0>         0.1409
     44 H8          0.1399   -0.2916    4.1031 H         1 <0>         0.1415
     45 H9          1.6124   -0.3059    9.1106 H         1 <0>         0.0772
     46 H10        -0.0673    0.1328    9.5034 H         1 <0>         0.0676
     47 H11         0.3161   -1.5151    8.9505 H         1 <0>         0.0879
     48 H12         1.5221    3.3572    7.1816 H         1 <0>         0.1290
     49 H13         1.1478    5.2760    8.6767 H         1 <0>         0.1303
     50 H14        -0.7912    5.2981   10.1923 H         1 <0>         0.1279
     51 H15        -2.3609    3.4027   10.2175 H         1 <0>         0.1308
     52 H16        -2.0014    1.4842    8.7185 H         1 <0>         0.1303
     53 H17         0.3310    1.6549    3.0096 H         1 <0>         0.1283
     54 H18        -0.2949    3.6322    1.6873 H         1 <0>         0.1235
     55 H19        -1.4722    5.5097    2.7553 H         1 <0>         0.1190
     56 H20        -2.0290    5.4225    5.1499 H         1 <0>         0.1182
     57 H21        -1.4213    3.4498    6.4876 H         1 <0>         0.1217
     58 H22         6.3047    2.1500    3.3568 H         1 <0>         0.0657
     59 H23         7.1822    0.7680    4.0555 H         1 <0>         0.0624
     60 H24         7.6072    1.3637    2.4329 H         1 <0>         0.0634
@<TRIPOS>BOND
     1    1    2 1
     2    1   37 1
     3    1   38 1
     4    1   39 1
     5    2    7 ar
     6    2    3 ar
     7    3    4 ar
     8    3   40 1
     9    4    5 ar
    10    4   36 1
    11    5    6 ar
    12    5   41 1
    13    6    7 ar
    14    6    8 1
    15    7   42 1
    16    8   33 1
    17    8    9 am
    18    9   10 2
    19    9   11 1
    20   11   12 2
    21   11   31 1
    22   12   13 1
    23   12   43 1
    24   13   17 2
    25   13   14 1
    26   14   15 2
    27   14   44 1
    28   15   16 1
    29   15   25 1
    30   16   17 1
    31   16   19 1
    32   17   18 1
    33   18   45 1
    34   18   46 1
    35   18   47 1
    36   19   24 ar
    37   19   20 ar
    38   20   21 ar
    39   20   48 1
    40   21   22 ar
    41   21   49 1
    42   22   23 ar
    43   22   50 1
    44   23   24 ar
    45   23   51 1
    46   24   52 1
    47   25   30 ar
    48   25   26 ar
    49   26   27 ar
    50   26   53 1
    51   27   28 ar
    52   27   54 1
    53   28   29 ar
    54   28   55 1
    55   29   30 ar
    56   29   56 1
    57   30   57 1
    58   31   32 1
    59   31   35 2
    60   32   33 2
    61   33   34 1
    62   36   58 1
    63   36   59 1
    64   36   60 1
@<TRIPOS>MOLECULE
ZINC59105375
   44    47     0     0     0
SMALL
USER_CHARGES

@<TRIPOS>ATOM
      1 C1         -0.1898    1.5438    1.4948 C.3       1 <0>        -0.1470
      2 C2         -0.1635    0.0141    1.4922 C.3       1 <0>         0.0643
      3 O1         -1.4693   -0.4843    1.1949 O.3       1 <0>        -0.3185
      4 C3         -1.6183   -1.8207    1.1539 C.2       1 <0>         0.4983
      5 O2         -0.5636   -2.6226    1.3873 O.3       1 <0>        -0.6229
      6 C4         -2.8620   -2.3730    0.8702 C.2       1 <0>        -0.4590
      7 C5         -3.0739   -3.8253    0.8144 C.2       1 <0>         0.3202
      8 S1         -4.8031   -3.9906    0.4241 S.3       1 <0>        -0.0939
      9 C6         -5.2699   -2.2751    0.3286 C.2       1 <0>        -0.1586
     10 C7         -6.4930   -1.7550    0.0561 C.2       1 <0>        -0.0269
     11 C8         -7.6606   -2.6398   -0.0485 C.ar      1 <0>        -0.0456
     12 C9         -7.6364   -3.9079    0.5445 C.ar      1 <0>        -0.0943
     13 C10        -8.7332   -4.7351    0.4445 C.ar      1 <0>        -0.0930
     14 C11        -9.8649   -4.3168   -0.2429 C.ar      1 <0>         0.0315
     15 C12        -9.8966   -3.0543   -0.8369 C.ar      1 <0>         0.0269
     16 C13        -8.8037   -2.2160   -0.7366 C.ar      1 <0>        -0.0823
     17 O3        -11.1085   -2.8890   -1.4438 O.3       1 <0>        -0.3101
     18 C14       -11.6604   -4.2131   -1.5663 C.3       1 <0>         0.2130
     19 O4        -11.0565   -4.9382   -0.4789 O.3       1 <0>        -0.3093
     20 C15        -4.0228   -1.5537    0.6192 C.2       1 <0>         0.4272
     21 O5         -3.9713   -0.3354    0.6429 O.2       1 <0>        -0.4855
     22 N1         -2.1888   -4.7839    1.0077 N.2       1 <0>        -0.4821
     23 C16        -2.5685   -6.0932    0.9149 C.ar      1 <0>         0.1528
     24 C17        -3.7531   -6.5250    1.5181 C.ar      1 <0>        -0.1699
     25 C18        -4.1305   -7.8478    1.4201 C.ar      1 <0>        -0.0640
     26 C19        -3.3389   -8.7473    0.7261 C.ar      1 <0>        -0.1258
     27 C20        -2.1639   -8.3266    0.1265 C.ar      1 <0>        -0.0710
     28 C21        -1.7772   -7.0056    0.2116 C.ar      1 <0>        -0.1236
     29 Br1        -3.8648  -10.5592    0.5973 Br        1 <0>        -0.0728
     30 H1          0.8063    1.9240    1.7216 H         1 <0>         0.0679
     31 H2         -0.5014    1.9035    0.5141 H         1 <0>         0.0615
     32 H3         -0.8930    1.8939    2.2504 H         1 <0>         0.0616
     33 H4          0.5398   -0.3360    0.7366 H         1 <0>         0.0562
     34 H5          0.1481   -0.3456    2.4729 H         1 <0>         0.0562
     35 H6         -6.6080   -0.6903   -0.0839 H         1 <0>         0.1503
     36 H7         -6.7581   -4.2373    1.0798 H         1 <0>         0.1563
     37 H8         -8.7127   -5.7131    0.9023 H         1 <0>         0.1382
     38 H9         -8.8292   -1.2370   -1.1917 H         1 <0>         0.1400
     39 H10       -12.7443   -4.1880   -1.4545 H         1 <0>         0.1294
     40 H11       -11.3832   -4.6564   -2.5227 H         1 <0>         0.0828
     41 H12        -4.3712   -5.8245    2.0600 H         1 <0>         0.1335
     42 H13        -5.0453   -8.1829    1.8860 H         1 <0>         0.1269
     43 H14        -1.5509   -9.0337   -0.4126 H         1 <0>         0.1284
     44 H15        -0.8629   -6.6777   -0.2607 H         1 <0>         0.1327
@<TRIPOS>BOND
     1    1    2 1
     2    1   30 1
     3    1   31 1
     4    1   32 1
     5    2    3 1
     6    2   33 1
     7    2   34 1
     8    3    4 1
     9    4    5 1
    10    4    6 2
    11    6    7 1
    12    6   20 1
    13    7   22 2
    14    7    8 1
    15    8    9 1
    16    9   10 2
    17    9   20 1
    18   10   11 1
    19   10   35 1
    20   11   16 ar
    21   11   12 ar
    22   12   13 ar
    23   12   36 1
    24   13   14 ar
    25   13   37 1
    26   14   19 1
    27   14   15 ar
    28   15   16 ar
    29   15   17 1
    30   16   38 1
    31   17   18 1
    32   18   19 1
    33   18   39 1
    34   18   40 1
    35   20   21 2
    36   22   23 1
    37   23   28 ar
    38   23   24 ar
    39   24   25 ar
    40   24   41 1
    41   25   26 ar
    42   25   42 1
    43   26   27 ar
    44   26   29 1
    45   27   28 ar
    46   27   43 1
    47   28   44 1
@<TRIPOS>MOLECULE
ZINC08682545
   54    58     0     0     0
SMALL
USER_CHARGES

@<TRIPOS>ATOM
      1 C1         -0.7638    0.6429   -2.3900 C.3       1 <0>        -0.0852
      2 C2         -0.2479   -0.2025   -1.2541 C.2       1 <0>         0.1739
      3 C3         -0.9272   -0.5143   -0.1318 C.2       1 <0>        -0.2135
      4 C4         -0.0930   -1.3214    0.6764 C.2       1 <0>         0.5598
      5 O1         -0.3793   -1.7882    1.7642 O.2       1 <0>        -0.5324
      6 N1          1.0765   -1.4814    0.0240 N.am      1 <0>        -0.3738
      7 N2          0.9849   -0.7876   -1.1899 N.pl3     1 <0>        -0.4060
      8 C5          2.0313   -0.7014   -2.2116 C.3       1 <0>         0.1128
      9 C6          2.1798   -2.2128    0.4752 C.ar      1 <0>         0.1712
     10 C7          3.4493   -1.6506    0.4396 C.ar      1 <0>        -0.1377
     11 C8          4.5367   -2.3755    0.8863 C.ar      1 <0>        -0.1072
     12 C9          4.3625   -3.6597    1.3688 C.ar      1 <0>        -0.1327
     13 C10         3.0999   -4.2225    1.4053 C.ar      1 <0>        -0.1024
     14 C11         2.0076   -3.5009    0.9653 C.ar      1 <0>        -0.1041
     15 C12        -2.3301   -0.0780    0.2035 C.3       1 <0>         0.1432
     16 H1         -2.3751    1.0107    0.2319 H         1 <0>         0.0815
     17 C13        -2.7204   -0.6322    1.5494 C.ar      1 <0>        -0.0223
     18 C14        -2.8822   -1.9950    1.7154 C.ar      1 <0>        -0.0436
     19 C15        -3.2402   -2.5034    2.9498 C.ar      1 <0>        -0.1306
     20 C16        -3.4367   -1.6494    4.0193 C.ar      1 <0>        -0.1250
     21 C17        -3.2752   -0.2869    3.8546 C.ar      1 <0>        -0.1305
     22 C18        -2.9113    0.2222    2.6204 C.ar      1 <0>        -0.0290
     23 Cl1        -2.7018    1.9332    2.4144 Cl        1 <0>        -0.0858
     24 C19        -3.2807   -0.5927   -0.8466 C.2       1 <0>        -0.4646
     25 C20        -3.0079   -1.7585   -1.5076 C.2       1 <0>         0.3455
     26 C21        -3.9679   -2.2175   -2.5235 C.ar      1 <0>        -0.1684
     27 C22        -3.7527   -3.3991   -3.2362 C.ar      1 <0>        -0.0420
     28 C23        -4.6711   -3.8012   -4.1803 C.ar      1 <0>        -0.1696
     29 C24        -5.8043   -3.0390   -4.4242 C.ar      1 <0>        -0.0846
     30 C25        -6.0284   -1.8701   -3.7278 C.ar      1 <0>        -0.1564
     31 C26        -5.1150   -1.4467   -2.7709 C.ar      1 <0>         0.1538
     32 O2         -5.3198   -0.3052   -2.0789 O.3       1 <0>        -0.3007
     33 C27        -4.4522    0.1191   -1.1462 C.2       1 <0>         0.5106
     34 O3         -4.6863    1.1538   -0.5465 O.2       1 <0>        -0.5292
     35 O4         -1.8889   -2.4680   -1.2358 O.3       1 <0>        -0.6294
     36 H2          0.0016    0.7201   -3.1623 H         1 <0>         0.0586
     37 H3         -1.6579    0.1816   -2.8094 H         1 <0>         0.0888
     38 H4         -1.0082    1.6387   -2.0200 H         1 <0>         0.0836
     39 H5          2.7124    0.1134   -1.9662 H         1 <0>         0.0572
     40 H6          2.5846   -1.6399   -2.2450 H         1 <0>         0.0713
     41 H7          1.5754   -0.5135   -3.1836 H         1 <0>         0.0893
     42 H8          3.5861   -0.6478    0.0625 H         1 <0>         0.1219
     43 H9          5.5242   -1.9390    0.8585 H         1 <0>         0.1243
     44 H10         5.2145   -4.2244    1.7176 H         1 <0>         0.1224
     45 H11         2.9673   -5.2260    1.7820 H         1 <0>         0.1267
     46 H12         1.0211   -3.9393    0.9985 H         1 <0>         0.1320
     47 H13        -2.7293   -2.6625    0.8803 H         1 <0>         0.1343
     48 H14        -3.3668   -3.5682    3.0789 H         1 <0>         0.1100
     49 H15        -3.7167   -2.0473    4.9835 H         1 <0>         0.1140
     50 H16        -3.4290    0.3801    4.6900 H         1 <0>         0.1170
     51 H17        -2.8711   -3.9939   -3.0482 H         1 <0>         0.1314
     52 H18        -4.5082   -4.7142   -4.7338 H         1 <0>         0.1191
     53 H19        -6.5177   -3.3641   -5.1670 H         1 <0>         0.1239
     54 H20        -6.9137   -1.2841   -3.9263 H         1 <0>         0.1290
@<TRIPOS>BOND
     1    1    2 1
     2    1   36 1
     3    1   37 1
     4    1   38 1
     5    2    7 1
     6    2    3 2
     7    3    4 1
     8    3   15 1
     9    4    5 2
    10    4    6 am
    11    6    7 1
    12    6    9 1
    13    7    8 1
    14    8   39 1
    15    8   40 1
    16    8   41 1
    17    9   14 ar
    18    9   10 ar
    19   10   11 ar
    20   10   42 1
    21   11   12 ar
    22   11   43 1
    23   12   13 ar
    24   12   44 1
    25   13   14 ar
    26   13   45 1
    27   14   46 1
    28   15   16 1
    29   15   17 1
    30   15   24 1
    31   17   22 ar
    32   17   18 ar
    33   18   19 ar
    34   18   47 1
    35   19   20 ar
    36   19   48 1
    37   20   21 ar
    38   20   49 1
    39   21   22 ar
    40   21   50 1
    41   22   23 1
    42   24   33 1
    43   24   25 2
    44   25   26 1
    45   25   35 1
    46   26   31 ar
    47   26   27 ar
    48   27   28 ar
    49   27   51 1
    50   28   29 ar
    51   28   52 1
    52   29   30 ar
    53   29   53 1
    54   30   31 ar
    55   30   54 1
    56   31   32 1
    57   32   33 1
    58   33   34 2
@<TRIPOS>MOLECULE
ZINC04063018
   42    46     0     0     0
SMALL
USER_CHARGES
2-oxo-N-[4-(7-thia-5,9-diazabicyclo[4.3.0]nona-2,4,8,10-tetraen-8-yl)phenyl]-chromene-3-carboxamide
@<TRIPOS>ATOM
      1 C1         -1.0961    2.8517    0.7042 C.ar      1 <0>        -0.1452
      2 C2         -1.1875    1.7017   -0.0680 C.ar      1 <0>        -0.0436
      3 C3         -0.1100    1.2661   -0.8095 C.ar      1 <0>        -0.1405
      4 C4          1.0796    1.9864   -0.7968 C.ar      1 <0>         0.1667
      5 C5          1.1682    3.1541   -0.0178 C.ar      1 <0>        -0.1747
      6 C6          0.0605    3.5758    0.7333 C.ar      1 <0>        -0.0424
      7 C7          2.3728    3.9014    0.0070 C.2       1 <0>         0.0513
      8 C8          3.4463    3.4576   -0.7460 C.2       1 <0>        -0.2596
      9 C9          3.2950    2.2324   -1.5393 C.2       1 <0>         0.5212
     10 O1          4.2255    1.8236   -2.2082 O.2       1 <0>        -0.4126
     11 O2          2.1316    1.5607   -1.5283 O.3       1 <0>        -0.2609
     12 C10         4.7167    4.2017   -0.7512 C.2       1 <0>         0.5700
     13 O3          5.6529    3.8019   -1.4168 O.2       1 <0>        -0.4749
     14 N1          4.8422    5.3259   -0.0185 N.am      1 <0>        -0.6717
     15 C11         6.0776    5.9704    0.0647 C.ar      1 <0>         0.1771
     16 C12         7.2516    5.2252    0.0473 C.ar      1 <0>        -0.1234
     17 C13         8.4725    5.8588    0.1235 C.ar      1 <0>        -0.0382
     18 C14         8.5300    7.2500    0.2302 C.ar      1 <0>        -0.0451
     19 C15         7.3490    7.9951    0.2531 C.ar      1 <0>        -0.0603
     20 C16         6.1315    7.3561    0.1704 C.ar      1 <0>        -0.1437
     21 C17         9.8375    7.9322    0.3192 C.2       1 <0>         0.2122
     22 N2         11.0436    7.4077    0.3137 N.2       1 <0>        -0.4969
     23 C18        12.1577    8.1580    0.4024 C.ar      1 <0>         0.0333
     24 C19        13.5079    7.7300    0.4079 C.ar      1 <0>        -0.0161
     25 C20        14.5067    8.6706    0.5073 C.ar      1 <0>        -0.1642
     26 C21        14.1987   10.0188    0.6009 C.ar      1 <0>         0.1346
     27 N3         12.9389   10.4153    0.5956 N.ar      1 <0>        -0.4387
     28 C22        11.9559    9.5564    0.5028 C.ar      1 <0>         0.0613
     29 S1         10.1826    9.6805    0.4538 S.3       1 <0>         0.0437
     30 H1         -1.9476    3.1779    1.2830 H         1 <0>         0.1402
     31 H2         -2.1103    1.1409   -0.0851 H         1 <0>         0.1453
     32 H3         -0.1912    0.3679   -1.4038 H         1 <0>         0.1492
     33 H4          0.1231    4.4714    1.3335 H         1 <0>         0.1436
     34 H5          2.4515    4.7993    0.6021 H         1 <0>         0.1549
     35 H6          4.0741    5.6870    0.4511 H         1 <0>         0.4101
     36 H7          7.2063    4.1489   -0.0305 H         1 <0>         0.1456
     37 H8          9.3840    5.2798    0.1055 H         1 <0>         0.1428
     38 H9          7.3903    9.0712    0.3352 H         1 <0>         0.1356
     39 H10         5.2179    7.9317    0.1881 H         1 <0>         0.1386
     40 H11        13.7499    6.6799    0.3354 H         1 <0>         0.1479
     41 H12        15.5398    8.3559    0.5122 H         1 <0>         0.1515
     42 H13        14.9918   10.7477    0.6782 H         1 <0>         0.1762
@<TRIPOS>BOND
     1    1    6 ar
     2    1    2 ar
     3    1   30 1
     4    2    3 ar
     5    2   31 1
     6    3    4 ar
     7    3   32 1
     8    4   11 1
     9    4    5 ar
    10    5    6 ar
    11    5    7 1
    12    6   33 1
    13    7    8 2
    14    7   34 1
    15    8    9 1
    16    8   12 1
    17    9   10 2
    18    9   11 1
    19   12   13 2
    20   12   14 am
    21   14   15 1
    22   14   35 1
    23   15   20 ar
    24   15   16 ar
    25   16   17 ar
    26   16   36 1
    27   17   18 ar
    28   17   37 1
    29   18   19 ar
    30   18   21 1
    31   19   20 ar
    32   19   38 1
    33   20   39 1
    34   21   29 1
    35   21   22 2
    36   22   23 1
    37   23   28 ar
    38   23   24 ar
    39   24   25 ar
    40   24   40 1
    41   25   26 ar
    42   25   41 1
    43   26   27 ar
    44   26   42 1
    45   27   28 ar
    46   28   29 1
@<TRIPOS>MOLECULE
ZINC13286451
   43    46     0     0     0
SMALL
USER_CHARGES
N-[(2Z,5Z)-5-(3-methyl-1,3-benzothiazol-2-ylidene)-4-oxo-2-phenylimino-thiazolidin-3-yl]acetamide
@<TRIPOS>ATOM
      1 C1          7.6002   -3.7210    0.7595 C.3       1 <0>        -0.1610
      2 C2          6.1475   -3.3359    0.8716 C.2       1 <0>         0.5222
      3 O1          5.7212   -2.8726    1.9081 O.2       1 <0>        -0.5214
      4 N1          5.3222   -3.5063   -0.1802 N.am      1 <0>        -0.5162
      5 N2          3.9717   -3.1482   -0.0760 N.am      1 <0>        -0.3411
      6 C3          3.6214   -1.8743   -0.1031 C.2       1 <0>         0.5846
      7 O2          4.4664   -1.0007   -0.2185 O.2       1 <0>        -0.5083
      8 C4          2.2588   -1.5414    0.0028 C.2       1 <0>        -0.3277
      9 C5          1.6576   -0.2910   -0.0009 C.2       1 <0>         0.3009
     10 N3          2.2468    0.9450    0.0360 N.pl3     1 <0>        -0.5060
     11 C6          1.4656    2.0869    0.0251 C.ar      1 <0>         0.1270
     12 C7          1.9030    3.4223    0.0586 C.ar      1 <0>        -0.1193
     13 C8          1.0027    4.4605    0.0432 C.ar      1 <0>        -0.0748
     14 C9         -0.3613    4.2279   -0.0067 C.ar      1 <0>        -0.1186
     15 C10        -0.8215    2.9229   -0.0362 C.ar      1 <0>        -0.0371
     16 C11         0.0789    1.8841   -0.0247 C.ar      1 <0>        -0.1603
     17 S1         -0.0801    0.1149   -0.0543 S.3       1 <0>         0.0985
     18 C12         3.7066    1.0581    0.0871 C.3       1 <0>         0.0720
     19 S2          1.5085   -3.1565    0.1512 S.3       1 <0>         0.0203
     20 C13         3.0064   -4.1255    0.0544 C.2       1 <0>         0.4021
     21 N4          3.1521   -5.4338    0.1008 N.2       1 <0>        -0.4622
     22 C14         2.0550   -6.2397    0.2352 C.ar      1 <0>         0.0974
     23 C15         1.0662   -5.9287    1.1718 C.ar      1 <0>        -0.1474
     24 C16        -0.0398   -6.7430    1.2982 C.ar      1 <0>        -0.0982
     25 C17        -0.1658   -7.8721    0.5080 C.ar      1 <0>        -0.1210
     26 C18         0.8123   -8.1892   -0.4181 C.ar      1 <0>        -0.1052
     27 C19         1.9210   -7.3809   -0.5594 C.ar      1 <0>        -0.0983
     28 H1          8.0683   -3.1449   -0.0386 H         1 <0>         0.0963
     29 H2          8.1052   -3.5122    1.7026 H         1 <0>         0.1025
     30 H3          7.6777   -4.7845    0.5336 H         1 <0>         0.0972
     31 H4          5.6631   -3.8768   -1.0092 H         1 <0>         0.4253
     32 H5          2.9610    3.6354    0.0975 H         1 <0>         0.1351
     33 H6          1.3660    5.4772    0.0701 H         1 <0>         0.1400
     34 H7         -1.0571    5.0538   -0.0187 H         1 <0>         0.1442
     35 H8         -1.8820    2.7219   -0.0701 H         1 <0>         0.1424
     36 H9          4.1332    0.6771   -0.8408 H         1 <0>         0.1046
     37 H10         3.9858    2.1042    0.2127 H         1 <0>         0.0721
     38 H11         4.0868    0.4771    0.9273 H         1 <0>         0.0949
     39 H12         1.1653   -5.0503    1.7923 H         1 <0>         0.1293
     40 H13        -0.8072   -6.5014    2.0187 H         1 <0>         0.1285
     41 H14        -1.0317   -8.5086    0.6144 H         1 <0>         0.1268
     42 H15         0.7075   -9.0719   -1.0315 H         1 <0>         0.1301
     43 H16         2.6834   -7.6294   -1.2828 H         1 <0>         0.1299
@<TRIPOS>BOND
     1    1    2 1
     2    1   28 1
     3    1   29 1
     4    1   30 1
     5    2    3 2
     6    2    4 am
     7    4    5 1
     8    4   31 1
     9    5   20 1
    10    5    6 am
    11    6    7 2
    12    6    8 1
    13    8    9 2
    14    8   19 1
    15    9   17 1
    16    9   10 1
    17   10   11 1
    18   10   18 1
    19   11   16 ar
    20   11   12 ar
    21   12   13 ar
    22   12   32 1
    23   13   14 ar
    24   13   33 1
    25   14   15 ar
    26   14   34 1
    27   15   16 ar
    28   15   35 1
    29   16   17 1
    30   18   36 1
    31   18   37 1
    32   18   38 1
    33   19   20 1
    34   20   21 2
    35   21   22 1
    36   22   27 ar
    37   22   23 ar
    38   23   24 ar
    39   23   39 1
    40   24   25 ar
    41   24   40 1
    42   25   26 ar
    43   25   41 1
    44   26   27 ar
    45   26   42 1
    46   27   43 1
@<TRIPOS>MOLECULE
ZINC32960228
   63    66     0     0     0
SMALL
USER_CHARGES
(3S)-N-cyclooctyl-1-(2,5,6-trimethylfuro[2,3-d]pyrimidin-4-yl)piperidine-3-carboxamide
@<TRIPOS>ATOM
      1 C1         -2.7445    5.0495   -1.2485 C.3       1 <0>        -0.0768
      2 C2         -1.2648    4.8645   -1.0310 C.2       1 <0>        -0.1338
      3 C3         -0.3107    5.8001   -1.1408 C.2       1 <0>         0.0237
      4 O1          0.8946    5.2644   -0.8729 O.3       1 <0>        -0.1752
      5 C4          0.7852    3.9587   -0.5766 C.ar      1 <0>         0.3066
      6 C5         -0.5778    3.6266   -0.6575 C.ar      1 <0>        -0.2161
      7 C6         -0.9689    2.3065   -0.3959 C.ar      1 <0>         0.4115
      8 N1         -0.0285    1.4229   -0.0714 N.ar      1 <0>        -0.5552
      9 C7          1.2417    1.7771   -0.0066 C.ar      1 <0>         0.3625
     10 N2          1.6518    3.0040   -0.2491 N.ar      1 <0>        -0.5112
     11 C8          2.2646    0.7332    0.3609 C.3       1 <0>        -0.0858
     12 N3         -2.2986    1.9326   -0.4698 N.pl3     1 <0>        -0.4784
     13 C9         -2.6274    0.9496    0.5704 C.3       1 <0>         0.0552
     14 C10        -4.1318    0.6694    0.5521 C.3       1 <0>        -0.1159
     15 C11        -4.5296    0.1342   -0.8263 C.3       1 <0>        -0.1125
     16 C12        -4.1325    1.1555   -1.8958 C.3       1 <0>        -0.1011
     17 H1         -4.6895    2.0924   -1.7474 H         1 <0>         0.1089
     18 C13        -2.6281    1.4216   -1.8065 C.3       1 <0>         0.0851
     19 C14        -4.4670    0.6108   -3.2605 C.2       1 <0>         0.5206
     20 O2         -3.5893    0.4543   -4.0827 O.2       1 <0>        -0.5412
     21 N4         -5.7415    0.2976   -3.5673 N.am      1 <0>        -0.7376
     22 C15        -6.0666   -0.2319   -4.8940 C.3       1 <0>         0.1262
     23 C16        -6.2713    0.9285   -5.8702 C.3       1 <0>        -0.1262
     24 C17        -6.2146    0.4028   -7.3058 C.3       1 <0>        -0.1248
     25 C18        -5.0458   -0.5742   -7.4464 C.3       1 <0>        -0.1348
     26 C19        -5.5865   -1.9833   -7.6980 C.3       1 <0>        -0.1206
     27 C20        -6.1241   -2.5636   -6.3883 C.3       1 <0>        -0.1315
     28 C21        -7.4778   -1.9278   -6.0661 C.3       1 <0>        -0.1259
     29 C22        -7.3496   -1.0615   -4.8116 C.3       1 <0>        -0.1249
     30 C23        -0.5525    7.2410   -1.5103 C.3       1 <0>        -0.0795
     31 H2         -2.9472    6.0961   -1.5199 H         1 <0>         0.0677
     32 H3         -3.2851    4.7992   -0.3238 H         1 <0>         0.0774
     33 H4         -3.0812    4.3883   -2.0606 H         1 <0>         0.0708
     34 H5          3.2660    1.1884    0.3702 H         1 <0>         0.0913
     35 H6          2.2390   -0.0813   -0.3779 H         1 <0>         0.0915
     36 H7          2.0355    0.3306    1.3586 H         1 <0>         0.0918
     37 H8         -2.0786    0.0157    0.3789 H         1 <0>         0.0607
     38 H9         -2.3410    1.3479    1.5550 H         1 <0>         0.0787
     39 H10        -4.3749   -0.0780    1.3217 H         1 <0>         0.0795
     40 H11        -4.6807    1.6001    0.7584 H         1 <0>         0.0764
     41 H12        -4.0110   -0.8176   -1.0137 H         1 <0>         0.0696
     42 H13        -5.6171   -0.0286   -0.8566 H         1 <0>         0.0748
     43 H14        -2.3423    2.1659   -2.5643 H         1 <0>         0.0855
     44 H15        -2.0793    0.4855   -1.9868 H         1 <0>         0.0587
     45 H16        -6.5376    0.4396   -2.8216 H         1 <0>         0.4166
     46 H17        -5.2195   -0.8587   -5.2094 H         1 <0>         0.1123
     47 H18        -7.2519    1.3924   -5.6879 H         1 <0>         0.0626
     48 H19        -5.4786    1.6766   -5.7219 H         1 <0>         0.0637
     49 H20        -7.1555   -0.1149   -7.5441 H         1 <0>         0.0743
     50 H21        -6.0736    1.2449   -7.9994 H         1 <0>         0.0603
     51 H22        -4.4119   -0.2683   -8.2917 H         1 <0>         0.0588
     52 H23        -4.4507   -0.5695   -6.5213 H         1 <0>         0.0795
     53 H24        -6.3977   -1.9378   -8.4396 H         1 <0>         0.0641
     54 H25        -4.7774   -2.6240   -8.0785 H         1 <0>         0.0602
     55 H26        -6.2457   -3.6519   -6.4921 H         1 <0>         0.0607
     56 H27        -5.4157   -2.3498   -5.5744 H         1 <0>         0.0705
     57 H28        -7.7998   -1.3025   -6.9119 H         1 <0>         0.0775
     58 H29        -8.2219   -2.7187   -5.8907 H         1 <0>         0.0642
     59 H30        -7.3120   -1.7075   -3.9220 H         1 <0>         0.0679
     60 H31        -8.2171   -0.3890   -4.7400 H         1 <0>         0.0686
     61 H32         0.4056    7.7812   -1.5260 H         1 <0>         0.0838
     62 H33        -1.2215    7.7023   -0.7689 H         1 <0>         0.0946
     63 H34        -1.0181    7.2911   -2.5057 H         1 <0>         0.0942
@<TRIPOS>BOND
     1    1    2 1
     2    1   31 1
     3    1   32 1
     4    1   33 1
     5    2    6 1
     6    2    3 2
     7    3    4 1
     8    3   30 1
     9    4    5 1
    10    5   10 ar
    11    5    6 ar
    12    6    7 ar
    13    7    8 ar
    14    7   12 1
    15    8    9 ar
    16    9   10 ar
    17    9   11 1
    18   11   34 1
    19   11   35 1
    20   11   36 1
    21   12   18 1
    22   12   13 1
    23   13   14 1
    24   13   37 1
    25   13   38 1
    26   14   15 1
    27   14   39 1
    28   14   40 1
    29   15   16 1
    30   15   41 1
    31   15   42 1
    32   16   17 1
    33   16   18 1
    34   16   19 1
    35   18   43 1
    36   18   44 1
    37   19   20 2
    38   19   21 am
    39   21   22 1
    40   21   45 1
    41   22   29 1
    42   22   23 1
    43   22   46 1
    44   23   24 1
    45   23   47 1
    46   23   48 1
    47   24   25 1
    48   24   49 1
    49   24   50 1
    50   25   26 1
    51   25   51 1
    52   25   52 1
    53   26   27 1
    54   26   53 1
    55   26   54 1
    56   27   28 1
    57   27   55 1
    58   27   56 1
    59   28   29 1
    60   28   57 1
    61   28   58 1
    62   29   59 1
    63   29   60 1
    64   30   61 1
    65   30   62 1
    66   30   63 1
@<TRIPOS>MOLECULE
ZINC02974728
   52    56     0     0     0
SMALL
USER_CHARGES

@<TRIPOS>ATOM
      1 C1         -0.0184    1.5028    0.0103 C.3       1 <0>        -0.1165
      2 C2          0.0021   -0.0041    0.0020 C.ar      1 <0>        -0.0701
      3 C3          0.0057   -0.6883   -1.1999 C.ar      1 <0>        -0.1152
      4 C4          0.0244   -2.0707   -1.2117 C.ar      1 <0>        -0.0978
      5 C5          0.0391   -2.7728   -0.0222 C.ar      1 <0>        -0.1046
      6 C6          0.0355   -2.0889    1.1860 C.ar      1 <0>         0.1254
      7 C7          0.0229   -0.7002    1.1945 C.ar      1 <0>        -0.1201
      8 N1          0.0504   -2.7980    2.3940 N.pl3     1 <0>        -0.4087
      9 C8          0.9088   -2.5566    3.4336 C.2       1 <0>         0.0648
     10 C9          0.6526   -3.4214    4.4460 C.2       1 <0>        -0.0987
     11 C10        -0.4581   -4.2722    3.9989 C.ar      1 <0>        -0.2470
     12 C11        -0.7962   -3.8298    2.7081 C.ar      1 <0>         0.3543
     13 N2         -1.7927   -4.4390    2.0676 N.ar      1 <0>        -0.5626
     14 C12        -2.4480   -5.4303    2.6322 C.ar      1 <0>         0.3571
     15 N3         -2.1648   -5.8740    3.8434 N.ar      1 <0>        -0.5632
     16 C13        -1.1802   -5.3349    4.5575 C.ar      1 <0>         0.5102
     17 N4         -0.8874   -5.8014    5.8267 N.pl3     1 <0>        -0.5586
     18 N5         -1.6023   -6.8386    6.3549 N.3       1 <0>        -0.2832
     19 C14        -2.3488   -6.4108    7.5470 C.3       1 <0>         0.0003
     20 C15        -3.1803   -7.5849    8.0704 C.3       1 <0>         0.0687
     21 O1         -2.3158   -8.6915    8.3412 O.3       1 <0>        -0.3828
     22 C16        -1.5737   -9.1347    7.2017 C.3       1 <0>         0.0691
     23 C17        -0.7259   -7.9762    6.6696 C.3       1 <0>         0.0006
     24 C18         1.3561   -3.4944    5.7486 C.ar      1 <0>        -0.0094
     25 C19         0.6273   -3.5238    6.9369 C.ar      1 <0>        -0.1302
     26 C20         1.2877   -3.5922    8.1466 C.ar      1 <0>        -0.1129
     27 C21         2.6701   -3.6312    8.1818 C.ar      1 <0>        -0.1195
     28 C22         3.3986   -3.6018    7.0061 C.ar      1 <0>        -0.1097
     29 C23         2.7490   -3.5397    5.7902 C.ar      1 <0>        -0.1077
     30 H1          1.0042    1.8801    0.0026 H         1 <0>         0.0746
     31 H2         -0.5455    1.8639   -0.8728 H         1 <0>         0.0715
     32 H3         -0.5286    1.8543    0.9071 H         1 <0>         0.0682
     33 H4         -0.0065   -0.1416   -2.1312 H         1 <0>         0.1296
     34 H5          0.0272   -2.6022   -2.1519 H         1 <0>         0.1330
     35 H6          0.0530   -3.8527   -0.0320 H         1 <0>         0.1292
     36 H7          0.0248   -0.1652    2.1327 H         1 <0>         0.1286
     37 H8          1.6735   -1.7940    3.4449 H         1 <0>         0.1817
     38 H9         -3.2504   -5.9002    2.0829 H         1 <0>         0.2010
     39 H10        -0.1744   -5.3919    6.3414 H         1 <0>         0.3982
     40 H11        -1.6493   -6.0879    8.3180 H         1 <0>         0.0482
     41 H12        -3.0099   -5.5846    7.2854 H         1 <0>         0.0926
     42 H13        -3.6910   -7.2893    8.9868 H         1 <0>         0.1046
     43 H14        -3.9161   -7.8731    7.3196 H         1 <0>         0.0678
     44 H15        -0.9225   -9.9599    7.4900 H         1 <0>         0.1048
     45 H16        -2.2627   -9.4679    6.4257 H         1 <0>         0.0678
     46 H17        -0.2024   -8.2928    5.7675 H         1 <0>         0.0927
     47 H18        -0.0004   -7.6783    7.4266 H         1 <0>         0.0485
     48 H19        -0.4519   -3.4927    6.9106 H         1 <0>         0.1217
     49 H20         0.7243   -3.6151    9.0677 H         1 <0>         0.1251
     50 H21         3.1827   -3.6843    9.1310 H         1 <0>         0.1252
     51 H22         4.4776   -3.6321    7.0398 H         1 <0>         0.1271
     52 H23         3.3186   -3.5213    4.8728 H         1 <0>         0.1264
@<TRIPOS>BOND
     1    1    2 1
     2    1   30 1
     3    1   31 1
     4    1   32 1
     5    2    7 ar
     6    2    3 ar
     7    3    4 ar
     8    3   33 1
     9    4    5 ar
    10    4   34 1
    11    5    6 ar
    12    5   35 1
    13    6    7 ar
    14    6    8 1
    15    7   36 1
    16    8   12 1
    17    8    9 1
    18    9   10 2
    19    9   37 1
    20   10   11 1
    21   10   24 1
    22   11   16 ar
    23   11   12 ar
    24   12   13 ar
    25   13   14 ar
    26   14   15 ar
    27   14   38 1
    28   15   16 ar
    29   16   17 1
    30   17   18 1
    31   17   39 1
    32   18   23 1
    33   18   19 1
    34   19   20 1
    35   19   40 1
    36   19   41 1
    37   20   21 1
    38   20   42 1
    39   20   43 1
    40   21   22 1
    41   22   23 1
    42   22   44 1
    43   22   45 1
    44   23   46 1
    45   23   47 1
    46   24   29 ar
    47   24   25 ar
    48   25   26 ar
    49   25   48 1
    50   26   27 ar
    51   26   49 1
    52   27   28 ar
    53   27   50 1
    54   28   29 ar
    55   28   51 1
    56   29   52 1
@<TRIPOS>MOLECULE
ZINC52159890
   48    52     0     0     0
SMALL
USER_CHARGES

@<TRIPOS>ATOM
      1 C1         -0.0164    1.3602    0.0095 C.ar      1 <0>        -0.1339
      2 C2          1.1679    2.0914    0.0021 C.ar      1 <0>        -0.0722
      3 C3          2.3792    1.4662   -0.0133 C.ar      1 <0>        -0.1094
      4 C4          2.4351    0.0650   -0.0213 C.ar      1 <0>         0.1955
      5 C5          1.2279   -0.6770   -0.0133 C.ar      1 <0>        -0.2007
      6 C6          0.0021   -0.0041    0.0020 C.ar      1 <0>        -0.0683
      7 C7          1.3074   -2.0927   -0.0212 C.ar      1 <0>         0.4847
      8 N1          2.5057   -2.6551   -0.0357 N.ar      1 <0>        -0.5857
      9 C8          3.6185   -1.9194   -0.0428 C.ar      1 <0>         0.4540
     10 N2          3.5998   -0.5965   -0.0360 N.ar      1 <0>        -0.5382
     11 C9          4.9222   -2.6086   -0.0585 C.2       1 <0>        -0.1179
     12 C10         6.1837   -2.0711   -0.0624 C.2       1 <0>        -0.0982
     13 C11         7.2645   -2.9211   -0.0780 C.2       1 <0>        -0.1673
     14 C12         7.0515   -4.2639   -0.0890 C.2       1 <0>        -0.1691
     15 S1          5.2689   -4.3600   -0.0694 S.3       1 <0>         0.1120
     16 N3          0.1649   -2.8644   -0.0135 N.pl3     1 <0>        -0.6917
     17 C13         0.2679   -4.3258   -0.0219 C.3       1 <0>         0.1515
     18 C14         0.4455   -4.8326    1.4112 C.3       1 <0>        -0.1423
     19 C15         0.5875   -6.3578    1.3953 C.3       1 <0>         0.1307
     20 N4         -0.5663   -6.9329    0.6905 N.pl3     1 <0>        -0.5843
     21 C16        -0.8813   -6.4497   -0.6608 C.3       1 <0>         0.1322
     22 C17        -1.0069   -4.9234   -0.6218 C.3       1 <0>        -0.1441
     23 C18        -1.3414   -7.9116    1.2879 C.ar      1 <0>         0.5661
     24 N5         -1.0350   -8.3232    2.5095 N.ar      1 <0>        -0.5711
     25 C19        -1.7555   -9.2564    3.1091 C.ar      1 <0>         0.1938
     26 C20        -2.8413   -9.8039    2.4439 C.ar      1 <0>        -0.2952
     27 C21        -3.1337   -9.3503    1.1672 C.ar      1 <0>         0.1934
     28 N6         -2.3755   -8.4107    0.6269 N.ar      1 <0>        -0.5726
     29 H1         -0.9630    1.8799    0.0259 H         1 <0>         0.1306
     30 H2          1.1266    3.1706    0.0083 H         1 <0>         0.1342
     31 H3          3.2902    2.0464   -0.0196 H         1 <0>         0.1405
     32 H4         -0.9236   -0.5604    0.0082 H         1 <0>         0.1247
     33 H5          6.3257   -1.0005   -0.0537 H         1 <0>         0.1444
     34 H6          8.2701   -2.5271   -0.0818 H         1 <0>         0.1391
     35 H7          7.7746   -5.0660   -0.1017 H         1 <0>         0.1899
     36 H8         -0.7072   -2.4398   -0.0026 H         1 <0>         0.4112
     37 H9          1.1270   -4.6258   -0.6220 H         1 <0>         0.0991
     38 H10         1.3409   -4.3883    1.8459 H         1 <0>         0.0836
     39 H11        -0.4247   -4.5544    2.0059 H         1 <0>         0.0663
     40 H12         1.5064   -6.6338    0.8780 H         1 <0>         0.0711
     41 H13         0.6149   -6.7330    2.4183 H         1 <0>         0.1025
     42 H14        -0.0822   -6.7332   -1.3458 H         1 <0>         0.0707
     43 H15        -1.8230   -6.8854   -0.9944 H         1 <0>         0.1052
     44 H16        -1.8633   -4.6444   -0.0080 H         1 <0>         0.0728
     45 H17        -1.1451   -4.5438   -1.6342 H         1 <0>         0.0851
     46 H18        -1.5006   -9.5881    4.1048 H         1 <0>         0.1667
     47 H19        -3.4462  -10.5676    2.9101 H         1 <0>         0.1438
     48 H20        -3.9726   -9.7565    0.6217 H         1 <0>         0.1667
@<TRIPOS>BOND
     1    1    6 ar
     2    1    2 ar
     3    1   29 1
     4    2    3 ar
     5    2   30 1
     6    3    4 ar
     7    3   31 1
     8    4   10 ar
     9    4    5 ar
    10    5    6 ar
    11    5    7 ar
    12    6   32 1
    13    7    8 ar
    14    7   16 1
    15    8    9 ar
    16    9   10 ar
    17    9   11 1
    18   11   15 1
    19   11   12 2
    20   12   13 1
    21   12   33 1
    22   13   14 2
    23   13   34 1
    24   14   15 1
    25   14   35 1
    26   16   17 1
    27   16   36 1
    28   17   22 1
    29   17   18 1
    30   17   37 1
    31   18   19 1
    32   18   38 1
    33   18   39 1
    34   19   20 1
    35   19   40 1
    36   19   41 1
    37   20   21 1
    38   20   23 1
    39   21   22 1
    40   21   42 1
    41   21   43 1
    42   22   44 1
    43   22   45 1
    44   23   28 ar
    45   23   24 ar
    46   24   25 ar
    47   25   26 ar
    48   25   46 1
    49   26   27 ar
    50   26   47 1
    51   27   28 ar
    52   27   48 1
@<TRIPOS>MOLECULE
ZINC03239654
   49    53     0     0     0
SMALL
USER_CHARGES
3,5-bis(benzothiazol-2-ylsulfanylmethyl)-4-methyl-benzoic acid
@<TRIPOS>ATOM
      1 C1          0.7382    3.6059    1.1959 C.3       1 <0>        -0.1281
      2 C2         -0.3583    2.7802    1.8179 C.ar      1 <0>        -0.0415
      3 C3         -1.0046    3.2366    2.9530 C.ar      1 <0>        -0.1097
      4 C4         -2.0054    2.4832    3.5307 C.ar      1 <0>        -0.0317
      5 C5         -2.3696    1.2602    2.9640 C.ar      1 <0>        -0.1146
      6 C6         -1.7171    0.8083    1.8152 C.ar      1 <0>        -0.0410
      7 C7         -0.7181    1.5718    1.2479 C.ar      1 <0>        -0.1088
      8 C8         -0.0127    1.0858    0.0080 C.3       1 <0>        -0.0863
      9 S1         -0.8881    1.6854   -1.4584 S.3       1 <0>         0.0782
     10 C9          0.1221    0.9900   -2.7235 C.2       1 <0>         0.1290
     11 N1         -0.0115    1.0802   -4.0280 N.2       1 <0>        -0.4929
     12 C10         0.8477    0.4899   -4.8872 C.ar      1 <0>         0.0906
     13 C11         0.8189    0.5086   -6.3008 C.ar      1 <0>        -0.0651
     14 C12         1.7763   -0.1479   -7.0295 C.ar      1 <0>        -0.1099
     15 C13         2.8011   -0.8508   -6.4130 C.ar      1 <0>        -0.1012
     16 C14         2.8596   -0.8905   -5.0316 C.ar      1 <0>        -0.0644
     17 C15         1.9058   -0.2354   -4.2941 C.ar      1 <0>        -0.1429
     18 S2          1.5936   -0.0110   -2.5595 S.3       1 <0>        -0.0096
     19 C16        -3.4407    0.4481    3.5769 C.2       1 <0>         0.4898
     20 O1         -3.7556   -0.6153    3.0814 O.co2     1 <0>        -0.6260
     21 C17        -0.6098    4.5567    3.5634 C.3       1 <0>        -0.0849
     22 S3          0.7061    4.2906    4.7773 S.3       1 <0>         0.0780
     23 C18         0.9647    5.9480    5.3166 C.2       1 <0>         0.1287
     24 N2          1.8150    6.4009    6.2108 N.2       1 <0>        -0.4929
     25 C19         1.9053    7.7112    6.5269 C.ar      1 <0>         0.0906
     26 C20         2.7696    8.3256    7.4622 C.ar      1 <0>        -0.0651
     27 C21         2.7337    9.6809    7.6639 C.ar      1 <0>        -0.1100
     28 C22         1.8545   10.4946    6.9644 C.ar      1 <0>        -0.1013
     29 C23         0.9944    9.9268    6.0418 C.ar      1 <0>        -0.0644
     30 C24         1.0241    8.5710    5.8328 C.ar      1 <0>        -0.1431
     31 S4          0.1430    7.4421    4.7812 S.3       1 <0>        -0.0085
     32 H1          0.3081    4.2873    0.4618 H         1 <0>         0.0786
     33 H2          1.2450    4.1802    1.9715 H         1 <0>         0.0718
     34 H3          1.4547    2.9476    0.7046 H         1 <0>         0.0703
     35 H4         -2.5058    2.8384    4.4194 H         1 <0>         0.1402
     36 H5         -1.9937   -0.1370    1.3721 H         1 <0>         0.1364
     37 H6          0.0021   -0.0041    0.0020 H         1 <0>         0.1077
     38 H7          1.0099    1.4631    0.0003 H         1 <0>         0.1091
     39 H8          0.0341    1.0464   -6.8120 H         1 <0>         0.1333
     40 H9          1.7316   -0.1176   -8.1082 H         1 <0>         0.1339
     41 H10         3.5458   -1.3615   -7.0055 H         1 <0>         0.1380
     42 H11         3.6512   -1.4334   -4.5367 H         1 <0>         0.1331
     43 H12        -0.2525    5.2264    2.7811 H         1 <0>         0.1074
     44 H13        -1.4741    5.0021    4.0562 H         1 <0>         0.1090
     45 H14         3.4660    7.7205    8.0237 H         1 <0>         0.1333
     46 H15         3.4048   10.1253    8.3840 H         1 <0>         0.1338
     47 H16         1.8420   11.5605    7.1380 H         1 <0>         0.1379
     48 H17         0.3040   10.5468    5.4892 H         1 <0>         0.1331
     49 O2         -4.0682    0.8869    4.6852 O.co2     1 <0>        -0.7480
@<TRIPOS>BOND
     1    1    2 1
     2    1   32 1
     3    1   33 1
     4    1   34 1
     5    2    7 ar
     6    2    3 ar
     7    3    4 ar
     8    3   21 1
     9    4    5 ar
    10    4   35 1
    11    5    6 ar
    12    5   19 1
    13    6    7 ar
    14    6   36 1
    15    7    8 1
    16    8    9 1
    17    8   37 1
    18    8   38 1
    19    9   10 1
    20   10   18 1
    21   10   11 2
    22   11   12 1
    23   12   17 ar
    24   12   13 ar
    25   13   14 ar
    26   13   39 1
    27   14   15 ar
    28   14   40 1
    29   15   16 ar
    30   15   41 1
    31   16   17 ar
    32   16   42 1
    33   17   18 1
    34   19   20 2
    35   19   49 1
    36   21   22 1
    37   21   43 1
    38   21   44 1
    39   22   23 1
    40   23   31 1
    41   23   24 2
    42   24   25 1
    43   25   30 ar
    44   25   26 ar
    45   26   27 ar
    46   26   45 1
    47   27   28 ar
    48   27   46 1
    49   28   29 ar
    50   28   47 1
    51   29   30 ar
    52   29   48 1
    53   30   31 1
@<TRIPOS>MOLECULE
ZINC12529142
   43    45     0     0     0
SMALL
USER_CHARGES
N-(3-chlorophenyl)-4-[(N'E)-N'-[(3-fluorophenyl)methylene]hydrazino]-3-nitro-benzenesulfonamide
@<TRIPOS>ATOM
      1 C1          5.8390   -3.7919   -8.7692 C.ar      1 <0>        -0.0929
      2 C2          5.3644   -2.5157   -8.5473 C.ar      1 <0>        -0.1042
      3 C3          4.8945   -2.1580   -7.2813 C.ar      1 <0>        -0.0147
      4 C4          4.9133   -3.0953   -6.2456 C.ar      1 <0>        -0.1208
      5 C5          5.3866   -4.3712   -6.4826 C.ar      1 <0>         0.0980
      6 C6          5.8511   -4.7178   -7.7418 C.ar      1 <0>        -0.1443
      7 F1          5.4021   -5.2810   -5.4840 F         1 <0>        -0.1365
      8 C7          4.3865   -0.7954   -7.0378 C.2       1 <0>         0.0922
      9 N1          3.9504   -0.4660   -5.8601 N.2       1 <0>        -0.2316
     10 N2          3.4678    0.8287   -5.6287 N.pl3     1 <0>        -0.5763
     11 C8          2.9991    1.1827   -4.3630 C.ar      1 <0>         0.3140
     12 C9          3.1119    0.2899   -3.3034 C.ar      1 <0>        -0.1890
     13 C10         2.6529    0.6462   -2.0510 C.ar      1 <0>         0.0599
     14 C11         2.0709    1.8852   -1.8525 C.ar      1 <0>        -0.6951
     15 C12         1.9566    2.7758   -2.9042 C.ar      1 <0>         0.0760
     16 C13         2.4189    2.4288   -4.1584 C.ar      1 <0>        -0.1322
     17 N3          2.2961    3.3828   -5.2837 N.pl3     1 <0>         0.0581
     18 O1          1.6917    4.4293   -5.1317 O.2       1 <0>        -0.1311
     19 O2          2.7995    3.1213   -6.3615 O.3       1 <0>        -0.2270
     20 S1          1.4801    2.3327   -0.2540 S.o2      1 <0>         2.5927
     21 O3          1.3696    3.7493   -0.2437 O.2       1 <0>        -0.9918
     22 O4          2.2756    1.6237    0.6861 O.2       1 <0>        -1.0306
     23 N4         -0.0589    1.7370   -0.1163 N.2       1 <0>        -1.0773
     24 C14        -0.2783    0.3577   -0.1360 C.ar      1 <0>         0.2306
     25 C15         0.0303   -0.4122    0.9786 C.ar      1 <0>        -0.1555
     26 C16        -0.1879   -1.7756    0.9567 C.ar      1 <0>        -0.0967
     27 C17        -0.7136   -2.3754   -0.1730 C.ar      1 <0>        -0.1651
     28 C18        -1.0223   -1.6121   -1.2852 C.ar      1 <0>        -0.0177
     29 C19        -0.8106   -0.2461   -1.2676 C.ar      1 <0>        -0.1520
     30 Cl1        -1.6826   -2.3693   -2.7009 Cl        1 <0>        -0.1037
     31 H1          6.2024   -4.0687   -9.7478 H         1 <0>         0.1375
     32 H2          5.3566   -1.7941   -9.3509 H         1 <0>         0.1362
     33 H3          4.5556   -2.8241   -5.2633 H         1 <0>         0.1460
     34 H4          6.2244   -5.7152   -7.9213 H         1 <0>         0.1368
     35 H5          4.3770   -0.0579   -7.8539 H         1 <0>         0.1293
     36 H6          3.4584    1.5662   -6.4448 H         1 <0>         0.4310
     37 H7          3.5625   -0.6792   -3.4586 H         1 <0>         0.1535
     38 H8          2.7445   -0.0450   -1.2263 H         1 <0>         0.1508
     39 H9          1.5055    3.7440   -2.7445 H         1 <0>         0.1672
     40 H10         0.4403    0.0553    1.8617 H         1 <0>         0.1230
     41 H11         0.0519   -2.3741    1.8231 H         1 <0>         0.1174
     42 H12        -0.8840   -3.4418   -0.1871 H         1 <0>         0.1166
     43 H13        -1.0557    0.3503   -2.1341 H         1 <0>         0.1196
@<TRIPOS>BOND
     1    1    6 ar
     2    1    2 ar
     3    1   31 1
     4    2    3 ar
     5    2   32 1
     6    3    4 ar
     7    3    8 1
     8    4    5 ar
     9    4   33 1
    10    5    6 ar
    11    5    7 1
    12    6   34 1
    13    8    9 2
    14    8   35 1
    15    9   10 1
    16   10   11 1
    17   10   36 1
    18   11   16 ar
    19   11   12 ar
    20   12   13 ar
    21   12   37 1
    22   13   14 ar
    23   13   38 1
    24   14   15 ar
    25   14   20 1
    26   15   16 ar
    27   15   39 1
    28   16   17 1
    29   17   18 2
    30   17   19 1
    31   20   21 2
    32   20   22 2
    33   20   23 1
    34   23   24 1
    35   24   29 ar
    36   24   25 ar
    37   25   26 ar
    38   25   40 1
    39   26   27 ar
    40   26   41 1
    41   27   28 ar
    42   27   42 1
    43   28   29 ar
    44   28   30 1
    45   29   43 1
@<TRIPOS>MOLECULE
ZINC36548428
   69    73     0     0     0
SMALL
USER_CHARGES

@<TRIPOS>ATOM
      1 C1          6.3927   -2.2297   -7.7983 C.3       1 <0>        -0.1530
      2 C2          5.4863   -3.0392   -6.8687 C.3       1 <0>        -0.1161
      3 C3          6.0929   -4.4260   -6.6455 C.3       1 <0>        -0.0475
      4 H1          6.2672   -4.9057   -7.6086 H         1 <0>         0.0742
      5 C4          7.4201   -4.2876   -5.8970 C.3       1 <0>        -0.1453
      6 C5          5.1421   -5.2650   -5.8312 C.ar      1 <0>        -0.0865
      7 C6          4.7664   -4.8511   -4.5664 C.ar      1 <0>        -0.1086
      8 C7          3.8951   -5.6179   -3.8177 C.ar      1 <0>        -0.0893
      9 C8          3.3964   -6.8054   -4.3362 C.ar      1 <0>         0.1583
     10 C9          3.7755   -7.2183   -5.6064 C.ar      1 <0>        -0.1021
     11 C10         4.6427   -6.4444   -6.3526 C.ar      1 <0>        -0.1120
     12 N1          2.5126   -7.5858   -3.5789 N.am      1 <0>        -0.5317
     13 C11         1.2413   -7.7483   -4.0031 C.2       1 <0>         0.5662
     14 O1          0.8509   -7.2280   -5.0322 O.2       1 <0>        -0.5206
     15 C12         0.3427   -8.5750   -3.1816 C.2       1 <0>        -0.2967
     16 C13        -0.9796   -8.7930   -3.5466 C.2       1 <0>         0.1060
     17 C14        -1.5427   -8.0721   -4.6187 C.2       1 <0>        -0.2057
     18 C15        -1.4176   -6.7154   -4.8667 C.2       1 <0>         0.1767
     19 N2         -2.0969   -6.3976   -5.9832 N.pl3     1 <0>        -0.4614
     20 C16        -2.6999   -7.5157   -6.5254 C.ar      1 <0>         0.0796
     21 C17        -2.3807   -8.6118   -5.7091 C.ar      1 <0>        -0.0591
     22 C18        -2.8555   -9.8805   -6.0245 C.ar      1 <0>        -0.0799
     23 C19        -3.6388  -10.0571   -7.1455 C.ar      1 <0>        -0.1367
     24 C20        -3.9526   -8.9766   -7.9556 C.ar      1 <0>        -0.1118
     25 C21        -3.4948   -7.7129   -7.6495 C.ar      1 <0>        -0.1208
     26 C22        -2.1857   -5.0485   -6.5474 C.3       1 <0>         0.1118
     27 C23        -3.4638   -4.3707   -6.0497 C.3       1 <0>         0.0439
     28 O2         -3.5504   -3.0547   -6.6000 O.3       1 <0>        -0.3082
     29 C24        -4.6347   -2.3117   -6.2549 C.ar      1 <0>         0.1293
     30 C25        -5.5929   -2.8364   -5.3994 C.ar      1 <0>        -0.2029
     31 C26        -6.6939   -2.0791   -5.0499 C.ar      1 <0>        -0.0855
     32 C27        -6.8416   -0.7990   -5.5517 C.ar      1 <0>        -0.1536
     33 C28        -5.8886   -0.2741   -6.4045 C.ar      1 <0>        -0.0851
     34 C29        -4.7826   -1.0255   -6.7527 C.ar      1 <0>        -0.1157
     35 C30        -3.7409   -0.4504   -7.6775 C.3       1 <0>        -0.1065
     36 C31         0.9110   -9.1625   -1.9521 C.2       1 <0>         0.5424
     37 N3          2.1978   -8.9110   -1.6598 N.2       1 <0>        -0.6704
     38 C32         2.9525   -8.1707   -2.4323 C.2       1 <0>         0.6349
     39 O3          4.2347   -7.9729   -2.0684 O.3       1 <0>        -0.6487
     40 O4          0.2285   -9.8590   -1.2193 O.2       1 <0>        -0.5474
     41 H2          7.3786   -2.1264   -7.3449 H         1 <0>         0.0562
     42 H3          6.4848   -2.7443   -8.7547 H         1 <0>         0.0521
     43 H4          5.9606   -1.2418   -7.9573 H         1 <0>         0.0513
     44 H5          5.3943   -2.5246   -5.9123 H         1 <0>         0.0635
     45 H6          4.5005   -3.1426   -7.3220 H         1 <0>         0.0621
     46 H7          7.2458   -3.8080   -4.9338 H         1 <0>         0.0569
     47 H8          7.8522   -5.2756   -5.7379 H         1 <0>         0.0563
     48 H9          8.1078   -3.6808   -6.4859 H         1 <0>         0.0562
     49 H10         5.1549   -3.9274   -4.1635 H         1 <0>         0.1202
     50 H11         3.6023   -5.2943   -2.8298 H         1 <0>         0.1208
     51 H12         3.3895   -8.1417   -6.0123 H         1 <0>         0.1167
     52 H13         4.9345   -6.7629   -7.3424 H         1 <0>         0.1193
     53 H14        -1.5762   -9.5149   -3.0088 H         1 <0>         0.1420
     54 H15        -0.8602   -6.0195   -4.2573 H         1 <0>         0.1714
     55 H16        -2.6116  -10.7233   -5.3946 H         1 <0>         0.1244
     56 H17        -4.0089  -11.0409   -7.3936 H         1 <0>         0.1222
     57 H18        -4.5668   -9.1254   -8.8314 H         1 <0>         0.1225
     58 H19        -3.7439   -6.8784   -8.2883 H         1 <0>         0.1156
     59 H20        -1.3196   -4.4658   -6.2337 H         1 <0>         0.1062
     60 H21        -2.2073   -5.1104   -7.6354 H         1 <0>         0.1004
     61 H22        -4.3299   -4.9534   -6.3633 H         1 <0>         0.0705
     62 H23        -3.4422   -4.3088   -4.9616 H         1 <0>         0.0705
     63 H24        -5.4782   -3.8362   -5.0075 H         1 <0>         0.1274
     64 H25        -7.4401   -2.4872   -4.3843 H         1 <0>         0.1247
     65 H26        -7.7031   -0.2085   -5.2772 H         1 <0>         0.1236
     66 H27        -6.0064    0.7257   -6.7954 H         1 <0>         0.1286
     67 H28        -4.0026   -0.6839   -8.7095 H         1 <0>         0.0679
     68 H29        -3.6984    0.6312   -7.5492 H         1 <0>         0.0650
     69 H30        -2.7682   -0.8826   -7.4427 H         1 <0>         0.0709
@<TRIPOS>BOND
     1    1    2 1
     2    1   41 1
     3    1   42 1
     4    1   43 1
     5    2    3 1
     6    2   44 1
     7    2   45 1
     8    3    4 1
     9    3    5 1
    10    3    6 1
    11    5   46 1
    12    5   47 1
    13    5   48 1
    14    6   11 ar
    15    6    7 ar
    16    7    8 ar
    17    7   49 1
    18    8    9 ar
    19    8   50 1
    20    9   10 ar
    21    9   12 1
    22   10   11 ar
    23   10   51 1
    24   11   52 1
    25   12   38 1
    26   12   13 am
    27   13   14 2
    28   13   15 1
    29   15   16 2
    30   15   36 1
    31   16   17 1
    32   16   53 1
    33   17   21 1
    34   17   18 2
    35   18   19 1
    36   18   54 1
    37   19   20 1
    38   19   26 1
    39   20   25 ar
    40   20   21 ar
    41   21   22 ar
    42   22   23 ar
    43   22   55 1
    44   23   24 ar
    45   23   56 1
    46   24   25 ar
    47   24   57 1
    48   25   58 1
    49   26   27 1
    50   26   59 1
    51   26   60 1
    52   27   28 1
    53   27   61 1
    54   27   62 1
    55   28   29 1
    56   29   34 ar
    57   29   30 ar
    58   30   31 ar
    59   30   63 1
    60   31   32 ar
    61   31   64 1
    62   32   33 ar
    63   32   65 1
    64   33   34 ar
    65   33   66 1
    66   34   35 1
    67   35   67 1
    68   35   68 1
    69   35   69 1
    70   36   37 1
    71   36   40 2
    72   37   38 2
    73   38   39 1
@<TRIPOS>MOLECULE
ZINC40147281
   62    66     0     0     0
SMALL
USER_CHARGES

@<TRIPOS>ATOM
      1 C1          0.6251    0.7756   -0.0105 C.3       1 <0>        -0.1476
      2 C2          0.5854   -0.7479    0.1241 C.3       1 <0>        -0.0811
      3 C3          1.1965   -1.1519    1.4411 C.ar      1 <0>        -0.0951
      4 C4          2.5528   -1.4058    1.5247 C.ar      1 <0>        -0.1176
      5 C5          3.1134   -1.7764    2.7327 C.ar      1 <0>        -0.1085
      6 C6          2.3178   -1.8926    3.8572 C.ar      1 <0>        -0.0690
      7 C7          0.9617   -1.6378    3.7738 C.ar      1 <0>        -0.1098
      8 C8          0.4018   -1.2631    2.5667 C.ar      1 <0>        -0.1180
      9 C9          2.9288   -2.2975    5.1739 C.3       1 <0>         0.0331
     10 C10         3.3706   -1.0665    5.9224 C.2       1 <0>        -0.2751
     11 C11         2.6870   -0.3016    6.8113 C.2       1 <0>         0.0885
     12 N1          3.2653    0.7450    7.3579 N.2       1 <0>        -0.5660
     13 C12         4.5177    1.0732    7.0556 C.2       1 <0>         0.4121
     14 S1          4.9428   -0.2148    5.8907 S.3       1 <0>        -0.1003
     15 N2          5.2724    2.1052    7.5126 N.2       1 <0>        -0.6161
     16 C13         4.7694    2.9524    8.3847 C.2       1 <0>         0.4672
     17 O1          3.5006    2.7952    8.8258 O.3       1 <0>        -0.6348
     18 C14         5.5856    4.0687    8.8790 C.2       1 <0>        -0.0540
     19 C15         5.0580    4.9572    9.7936 C.2       1 <0>         0.0531
     20 C16         5.9127    5.9781   10.3978 C.2       1 <0>        -0.2069
     21 C17         7.2981    5.9946   10.4222 C.2       1 <0>         0.0787
     22 N3          7.6836    7.1058   11.0740 N.pl3     1 <0>        -0.3113
     23 N4          6.5587    7.8272   11.4827 N.2       1 <0>        -0.2772
     24 C18         5.4744    7.1949   11.0951 C.2       1 <0>         0.1567
     25 C19         4.0745    7.6251   11.3219 C.ar      1 <0>        -0.0204
     26 C20         3.0978    7.3640   10.3617 C.ar      1 <0>        -0.0858
     27 C21         1.7959    7.7666   10.5787 C.ar      1 <0>        -0.1157
     28 C22         1.4590    8.4283   11.7460 C.ar      1 <0>        -0.1080
     29 C23         2.4238    8.6905   12.7021 C.ar      1 <0>        -0.1248
     30 C24         3.7278    8.2873   12.4990 C.ar      1 <0>        -0.0874
     31 C25         9.0119    7.4831   11.3081 C.ar      1 <0>         0.1573
     32 C26        10.0528    6.6869   10.8483 C.ar      1 <0>        -0.1377
     33 C27        11.3615    7.0617   11.0808 C.ar      1 <0>        -0.0901
     34 C28        11.6361    8.2281   11.7710 C.ar      1 <0>        -0.1299
     35 C29        10.6019    9.0231   12.2300 C.ar      1 <0>        -0.0977
     36 C30         9.2910    8.6570   11.9954 C.ar      1 <0>        -0.1182
     37 C31         6.9290    4.2351    8.4118 C.1       1 <0>         0.2872
     38 N5          7.9947    4.3672    8.0413 N.1       1 <0>        -0.4482
     39 H1          1.6594    1.1171    0.0300 H         1 <0>         0.0559
     40 H2          0.1830    1.0678   -0.9631 H         1 <0>         0.0542
     41 H3          0.0611    1.2273    0.8055 H         1 <0>         0.0560
     42 H4         -0.4490   -1.0894    0.0836 H         1 <0>         0.0675
     43 H5          1.1493   -1.1996   -0.6919 H         1 <0>         0.0674
     44 H6          3.1743   -1.3150    0.6461 H         1 <0>         0.1162
     45 H7          4.1729   -1.9755    2.7978 H         1 <0>         0.1188
     46 H8          0.3401   -1.7289    4.6522 H         1 <0>         0.1201
     47 H9         -0.6570   -1.0604    2.5023 H         1 <0>         0.1164
     48 H10         2.1903   -2.8375    5.7664 H         1 <0>         0.0816
     49 H11         3.7898   -2.9409    4.9924 H         1 <0>         0.0735
     50 H12         1.6686   -0.5523    7.0690 H         1 <0>         0.1346
     51 H13         4.0138    4.8985   10.0631 H         1 <0>         0.1633
     52 H14         7.9513    5.2484    9.9947 H         1 <0>         0.1896
     53 H15         3.3598    6.8481    9.4498 H         1 <0>         0.1341
     54 H16         1.0384    7.5649    9.8357 H         1 <0>         0.1303
     55 H17         0.4388    8.7418   11.9113 H         1 <0>         0.1237
     56 H18         2.1551    9.2078   13.6112 H         1 <0>         0.1246
     57 H19         4.4793    8.4883   13.2482 H         1 <0>         0.1255
     58 H20         9.8390    5.7754   10.3099 H         1 <0>         0.1320
     59 H21        12.1714    6.4429   10.7235 H         1 <0>         0.1341
     60 H22        12.6604    8.5187   11.9521 H         1 <0>         0.1285
     61 H23        10.8196    9.9334   12.7690 H         1 <0>         0.1317
     62 H24         8.4838    9.2806   12.3504 H         1 <0>         0.1385
@<TRIPOS>BOND
     1    1    2 1
     2    1   39 1
     3    1   40 1
     4    1   41 1
     5    2    3 1
     6    2   42 1
     7    2   43 1
     8    3    8 ar
     9    3    4 ar
    10    4    5 ar
    11    4   44 1
    12    5    6 ar
    13    5   45 1
    14    6    7 ar
    15    6    9 1
    16    7    8 ar
    17    7   46 1
    18    8   47 1
    19    9   10 1
    20    9   48 1
    21    9   49 1
    22   10   14 1
    23   10   11 2
    24   11   12 1
    25   11   50 1
    26   12   13 2
    27   13   14 1
    28   13   15 1
    29   15   16 2
    30   16   17 1
    31   16   18 1
    32   18   19 2
    33   18   37 1
    34   19   20 1
    35   19   51 1
    36   20   24 1
    37   20   21 2
    38   21   22 1
    39   21   52 1
    40   22   23 1
    41   22   31 1
    42   23   24 2
    43   24   25 1
    44   25   30 ar
    45   25   26 ar
    46   26   27 ar
    47   26   53 1
    48   27   28 ar
    49   27   54 1
    50   28   29 ar
    51   28   55 1
    52   29   30 ar
    53   29   56 1
    54   30   57 1
    55   31   36 ar
    56   31   32 ar
    57   32   33 ar
    58   32   58 1
    59   33   34 ar
    60   33   59 1
    61   34   35 ar
    62   34   60 1
    63   35   36 ar
    64   35   61 1
    65   36   62 1
    66   37   38 3
@<TRIPOS>MOLECULE
ZINC59104375
   47    50     0     0     0
SMALL
USER_CHARGES

@<TRIPOS>ATOM
      1 C1         -0.2549    1.3821   -0.5633 C.3       1 <0>        -0.1058
      2 C2         -0.1571   -0.1030   -0.3271 C.ar      1 <0>        -0.0403
      3 C3         -0.5065   -0.9846   -1.3309 C.ar      1 <0>        -0.1344
      4 C4         -0.4206   -2.3466   -1.1236 C.ar      1 <0>        -0.0939
      5 C5          0.0217   -2.8435    0.1065 C.ar      1 <0>        -0.0714
      6 C6          0.3767   -1.9596    1.1246 C.ar      1 <0>        -0.0578
      7 C7          0.2927   -0.5849    0.9058 C.ar      1 <0>        -0.1203
      8 C8          0.6714    0.3588    1.9753 C.2       1 <0>         0.5247
      9 O1          1.4572    1.2658    1.7403 O.co2     1 <0>        -0.6790
     10 O2          0.1993    0.2337    3.0964 O.co2     1 <0>        -0.6798
     11 C9          0.1120   -4.3002    0.3266 C.2       1 <0>         0.1169
     12 C10        -0.2006   -5.2642   -0.5893 C.2       1 <0>        -0.2236
     13 C11         0.0251   -6.5010    0.0208 C.2       1 <0>        -0.1158
     14 C12         0.4728   -6.2372    1.3030 C.2       1 <0>        -0.0572
     15 O3          0.5214   -4.8976    1.4607 O.3       1 <0>        -0.1516
     16 C13         0.8223   -7.2002    2.2744 C.2       1 <0>         0.1039
     17 C14         1.2514   -6.8014    3.5070 C.2       1 <0>        -0.2535
     18 C15         1.6692   -7.6162    4.6585 C.2       1 <0>         0.5600
     19 O4          1.6696   -8.8331    4.6093 O.2       1 <0>        -0.4966
     20 N1          2.0446   -6.9695    5.7490 N.am      1 <0>        -0.6881
     21 C16         2.0377   -5.5925    5.7854 C.2       1 <0>         0.3689
     22 N2          2.3762   -4.7986    6.7773 N.2       1 <0>        -0.4509
     23 C17         2.8537   -5.3282    7.9449 C.ar      1 <0>         0.1074
     24 C18         3.8829   -6.2727    7.9179 C.ar      1 <0>        -0.1569
     25 C19         4.3598   -6.8028    9.0984 C.ar      1 <0>        -0.0932
     26 C20         3.8216   -6.4015   10.3084 C.ar      1 <0>        -0.1164
     27 C21         2.8014   -5.4658   10.3434 C.ar      1 <0>        -0.0220
     28 C22         2.3185   -4.9228    9.1695 C.ar      1 <0>        -0.0597
     29 C23         1.2128   -3.8997    9.2090 C.3       1 <0>        -0.1197
     30 Cl1         2.1328   -4.9697   11.8668 Cl        1 <0>        -0.0604
     31 S1          1.4643   -5.1491    4.1536 S.3       1 <0>         0.1373
     32 H1          0.7155    1.7644   -0.8799 H         1 <0>         0.0767
     33 H2         -0.9938    1.5786   -1.3402 H         1 <0>         0.0529
     34 H3         -0.5572    1.8776    0.3593 H         1 <0>         0.0731
     35 H4         -0.8491   -0.6065   -2.2828 H         1 <0>         0.1242
     36 H5         -0.6959   -3.0301   -1.9131 H         1 <0>         0.1222
     37 H6          0.7187   -2.3377    2.0767 H         1 <0>         0.1277
     38 H7         -0.5559   -5.1011   -1.5961 H         1 <0>         0.1590
     39 H8         -0.1221   -7.4747   -0.4226 H         1 <0>         0.1618
     40 H9          0.7501   -8.2524    2.0420 H         1 <0>         0.1799
     41 H10         2.3271   -7.4694    6.5308 H         1 <0>         0.4149
     42 H11         4.3040   -6.5873    6.9744 H         1 <0>         0.1279
     43 H12         5.1551   -7.5332    9.0784 H         1 <0>         0.1360
     44 H13         4.1987   -6.8202   11.2298 H         1 <0>         0.1361
     45 H14         0.2482   -4.4051    9.1625 H         1 <0>         0.0737
     46 H15         1.2793   -3.3284   10.1350 H         1 <0>         0.0746
     47 H16         1.3110   -3.2254    8.3583 H         1 <0>         0.0883
@<TRIPOS>BOND
     1    1    2 1
     2    1   32 1
     3    1   33 1
     4    1   34 1
     5    2    7 ar
     6    2    3 ar
     7    3    4 ar
     8    3   35 1
     9    4    5 ar
    10    4   36 1
    11    5    6 ar
    12    5   11 1
    13    6    7 ar
    14    6   37 1
    15    7    8 1
    16    8    9 2
    17    8   10 1
    18   11   15 1
    19   11   12 2
    20   12   13 1
    21   12   38 1
    22   13   14 2
    23   13   39 1
    24   14   15 1
    25   14   16 1
    26   16   17 2
    27   16   40 1
    28   17   31 1
    29   17   18 1
    30   18   19 2
    31   18   20 am
    32   20   21 1
    33   20   41 1
    34   21   22 2
    35   21   31 1
    36   22   23 1
    37   23   28 ar
    38   23   24 ar
    39   24   25 ar
    40   24   42 1
    41   25   26 ar
    42   25   43 1
    43   26   27 ar
    44   26   44 1
    45   27   28 ar
    46   27   30 1
    47   28   29 1
    48   29   45 1
    49   29   46 1
    50   29   47 1
@<TRIPOS>MOLECULE
ZINC22506292
   70    72     0     0     0
SMALL
USER_CHARGES

@<TRIPOS>ATOM
      1 C1         -0.0186    1.5222    0.0104 C.3       1 <0>        -0.1390
      2 C2          0.0021   -0.0041    0.0020 C.3       1 <0>        -0.0279
      3 H1         -1.0393   -0.3611    0.0100 H         1 <0>         0.0748
      4 C3          0.6782   -0.5323   -1.2595 C.3       1 <0>        -0.1032
      5 C4          1.9713    0.2231   -1.5549 C.3       1 <0>        -0.1202
      6 C5          2.8634   -0.6302   -2.4640 C.3       1 <0>        -0.1224
      7 C6          4.3243   -0.2195   -2.2682 C.3       1 <0>        -0.1193
      8 C7          4.9974   -1.1721   -1.2787 C.3       1 <0>        -0.1232
      9 C8          5.4365   -0.3966   -0.0355 C.3       1 <0>        -0.1174
     10 C9          5.0817   -1.1951    1.2198 C.3       1 <0>        -0.1215
     11 C10         4.2947   -0.3114    2.1883 C.3       1 <0>        -0.1256
     12 C11         2.8758   -0.8605    2.3495 C.3       1 <0>        -0.0914
     13 C12         1.8670    0.1745    1.8414 C.3       1 <0>        -0.0925
     14 C13         0.6886   -0.5344    1.2303 C.2       1 <0>         0.0976
     15 N1          0.2557   -1.6163    1.7731 N.2       1 <0>        -0.3159
     16 N2          0.8829   -2.1252    2.9179 N.2       1 <0>        -0.4487
     17 C14         0.4231   -3.2743    3.4944 C.2       1 <0>         0.4606
     18 N3         -0.5913   -4.0366    3.1071 N.2       1 <0>        -0.7121
     19 C15        -0.9701   -5.1271    3.7155 C.2       1 <0>         0.5174
     20 O1         -1.9066   -5.7972    3.3260 O.2       1 <0>        -0.5560
     21 C16        -0.1562   -5.5022    4.9482 C.3       1 <0>        -0.1002
     22 H2          0.3459   -6.4607    4.8172 H         1 <0>         0.1246
     23 S1          1.0511   -4.1105    4.9445 S.3       1 <0>        -0.2261
     24 C17        -1.0200   -5.4970    6.2110 C.3       1 <0>        -0.1054
     25 C18        -0.2055   -5.9909    7.3788 C.2       1 <0>         0.5177
     26 O2          0.9520   -6.3150    7.2169 O.2       1 <0>        -0.5261
     27 N4         -0.7632   -6.0723    8.6030 N.am      1 <0>        -0.7333
     28 C19         0.0286   -6.5523    9.7382 C.3       1 <0>         0.1466
     29 C20         0.8198   -5.3877   10.3370 C.3       1 <0>        -0.1306
     30 C21         1.6468   -5.8890   11.5226 C.3       1 <0>        -0.1168
     31 C22         0.7132   -6.4714   12.5857 C.3       1 <0>        -0.1210
     32 C23        -0.0780   -7.6360   11.9869 C.3       1 <0>        -0.1153
     33 C24        -0.9050   -7.1347   10.8013 C.3       1 <0>        -0.1262
     34 H3          1.0040    1.8994    0.0027 H         1 <0>         0.0575
     35 H4         -0.5458    1.8832   -0.8727 H         1 <0>         0.0532
     36 H5         -0.5288    1.8737    0.9072 H         1 <0>         0.0521
     37 H6          0.9026   -1.5947   -1.1300 H         1 <0>         0.0635
     38 H7         -0.0038   -0.4242   -2.1077 H         1 <0>         0.0557
     39 H8          1.7455    1.1590   -2.0686 H         1 <0>         0.0552
     40 H9          2.5077    0.4312   -0.6321 H         1 <0>         0.0743
     41 H10         2.7398   -1.6812   -2.2105 H         1 <0>         0.0637
     42 H11         2.5767   -0.4686   -3.5029 H         1 <0>         0.0525
     43 H12         4.8442   -0.2660   -3.2255 H         1 <0>         0.0518
     44 H13         4.3669    0.7991   -1.8837 H         1 <0>         0.0641
     45 H14         4.2959   -1.9549   -0.9912 H         1 <0>         0.0685
     46 H15         5.8708   -1.6256   -1.7494 H         1 <0>         0.0527
     47 H16         6.5164   -0.2409   -0.0702 H         1 <0>         0.0511
     48 H17         4.9342    0.5692   -0.0092 H         1 <0>         0.0651
     49 H18         4.4812   -2.0615    0.9440 H         1 <0>         0.0667
     50 H19         5.9989   -1.5348    1.7042 H         1 <0>         0.0501
     51 H20         4.7925   -0.3057    3.1593 H         1 <0>         0.0493
     52 H21         4.2502    0.7067    1.8022 H         1 <0>         0.0573
     53 H22         2.7725   -1.7806    1.7760 H         1 <0>         0.0639
     54 H23         2.6834   -1.0646    3.4028 H         1 <0>         0.0750
     55 H24         1.5281    0.7831    2.6829 H         1 <0>         0.0564
     56 H25         2.3522    0.8148    1.1092 H         1 <0>         0.0597
     57 H26        -1.3645   -4.4825    6.4114 H         1 <0>         0.0993
     58 H27        -1.8800   -6.1507    6.0656 H         1 <0>         0.1083
     59 H28        -1.6889   -5.8131    8.7324 H         1 <0>         0.3985
     60 H29         0.7193   -7.3243    9.3989 H         1 <0>         0.0861
     61 H30         1.4849   -4.9728    9.5796 H         1 <0>         0.0704
     62 H31         0.1292   -4.6157   10.6763 H         1 <0>         0.0621
     63 H32         2.3374   -6.6610   11.1833 H         1 <0>         0.0636
     64 H33         2.2104   -5.0593   11.9492 H         1 <0>         0.0634
     65 H34         1.3024   -6.8285   13.4304 H         1 <0>         0.0614
     66 H35         0.0226   -5.6994   12.9250 H         1 <0>         0.0616
     67 H36         0.6127   -8.4080   11.6476 H         1 <0>         0.0644
     68 H37        -0.7431   -8.0509   12.7443 H         1 <0>         0.0647
     69 H38        -1.5956   -6.3627   11.1406 H         1 <0>         0.0669
     70 H39        -1.4686   -7.9644   10.3747 H         1 <0>         0.0679
@<TRIPOS>BOND
     1    1    2 1
     2    1   34 1
     3    1   35 1
     4    1   36 1
     5    2    3 1
     6    2   14 1
     7    2    4 1
     8    4    5 1
     9    4   37 1
    10    4   38 1
    11    5    6 1
    12    5   39 1
    13    5   40 1
    14    6    7 1
    15    6   41 1
    16    6   42 1
    17    7    8 1
    18    7   43 1
    19    7   44 1
    20    8    9 1
    21    8   45 1
    22    8   46 1
    23    9   10 1
    24    9   47 1
    25    9   48 1
    26   10   11 1
    27   10   49 1
    28   10   50 1
    29   11   12 1
    30   11   51 1
    31   11   52 1
    32   12   13 1
    33   12   53 1
    34   12   54 1
    35   13   14 1
    36   13   55 1
    37   13   56 1
    38   14   15 2
    39   15   16 1
    40   16   17 1
    41   17   23 1
    42   17   18 2
    43   18   19 1
    44   19   20 2
    45   19   21 1
    46   21   22 1
    47   21   23 1
    48   21   24 1
    49   24   25 1
    50   24   57 1
    51   24   58 1
    52   25   26 2
    53   25   27 am
    54   27   28 1
    55   27   59 1
    56   28   33 1
    57   28   29 1
    58   28   60 1
    59   29   30 1
    60   29   61 1
    61   29   62 1
    62   30   31 1
    63   30   63 1
    64   30   64 1
    65   31   32 1
    66   31   65 1
    67   31   66 1
    68   32   33 1
    69   32   67 1
    70   32   68 1
    71   33   69 1
    72   33   70 1
@<TRIPOS>MOLECULE
ZINC21895721
   47    49     0     0     0
SMALL
USER_CHARGES
1-[(3R,5S)-3,5-dimethyl-1-piperidyl]-2-[3-(p-tolyl)-5-thioxo-1H-1,2,4-triazol-4-yl]ethanone
@<TRIPOS>ATOM
      1 C1         -1.7792    3.2185    6.5836 C.3       1 <0>        -0.1129
      2 C2         -2.1944    3.5003    5.1626 C.ar      1 <0>        -0.0920
      3 C3         -1.3862    3.0947    4.1155 C.ar      1 <0>        -0.1150
      4 C4         -1.7603    3.3505    2.8123 C.ar      1 <0>        -0.1182
      5 C5         -2.9565    4.0192    2.5516 C.ar      1 <0>         0.0074
      6 C6         -3.7647    4.4299    3.6120 C.ar      1 <0>        -0.0817
      7 C7         -3.3819    4.1639    4.9106 C.ar      1 <0>        -0.1170
      8 C8         -3.3635    4.2972    1.1563 C.2       1 <0>         0.2046
      9 N1         -4.5762    4.5552    0.7541 N.2       1 <0>        -0.3061
     10 N2         -4.5395    4.7602   -0.6319 N.2       1 <0>        -0.3780
     11 C9         -3.2583    4.6181   -1.0293 C.2       1 <0>         0.4018
     12 S1         -2.6737    4.7748   -2.6308 S.3       1 <0>        -0.7715
     13 N3         -2.5221    4.3274    0.0617 N.pl3     1 <0>        -0.4849
     14 C10        -1.0766    4.0904    0.0834 C.3       1 <0>         0.0907
     15 C11        -0.8028    2.6316   -0.1772 C.2       1 <0>         0.5087
     16 O1         -1.7243    1.8653   -0.3628 O.2       1 <0>        -0.5089
     17 N4          0.4663    2.1784   -0.2040 N.am      1 <0>        -0.6160
     18 C12         1.5934    3.0956    0.0130 C.3       1 <0>         0.1096
     19 C13         2.5695    2.9635   -1.1602 C.3       1 <0>        -0.1105
     20 H1          2.0862    3.3138   -2.0841 H         1 <0>         0.0815
     21 C14         2.9747    1.4962   -1.3188 C.3       1 <0>        -0.1058
     22 C15         1.7347    0.6531   -1.6248 C.3       1 <0>        -0.1091
     23 H2          1.2579    1.0210   -2.5453 H         1 <0>         0.0780
     24 C16         0.7491    0.7590   -0.4568 C.3       1 <0>         0.1179
     25 C17         2.1447   -0.8085   -1.8161 C.3       1 <0>        -0.1444
     26 C18         3.8142    3.8103   -0.8868 C.3       1 <0>        -0.1455
     27 H3         -0.8158    2.6877    6.5857 H         1 <0>         0.0628
     28 H4         -2.5425    2.5948    7.0718 H         1 <0>         0.0680
     29 H5         -1.6762    4.1673    7.1305 H         1 <0>         0.0680
     30 H6         -0.4603    2.5771    4.3187 H         1 <0>         0.1217
     31 H7         -1.1282    3.0340    1.9958 H         1 <0>         0.1196
     32 H8         -4.6900    4.9516    3.4167 H         1 <0>         0.1343
     33 H9         -4.0085    4.4780    5.7322 H         1 <0>         0.1250
     34 H10        -0.5936    4.6990   -0.6953 H         1 <0>         0.1272
     35 H11        -0.6741    4.3687    1.0686 H         1 <0>         0.1103
     36 H12         1.2194    4.1284    0.0725 H         1 <0>         0.0839
     37 H13         2.1024    2.8352    0.9528 H         1 <0>         0.0704
     38 H14         3.6946    1.4019   -2.1452 H         1 <0>         0.0650
     39 H15         3.4380    1.1409   -0.3866 H         1 <0>         0.0629
     40 H16         1.1887    0.3066    0.4444 H         1 <0>         0.0639
     41 H17        -0.1862    0.2381   -0.7096 H         1 <0>         0.0917
     42 H18         1.2529   -1.4137   -2.0360 H         1 <0>         0.0577
     43 H19         2.6216   -1.1789   -0.8967 H         1 <0>         0.0547
     44 H20         2.8544   -0.8837   -2.6532 H         1 <0>         0.0574
     45 H21         4.5148    3.7151   -1.7295 H         1 <0>         0.0583
     46 H22         4.3005    3.4602    0.0357 H         1 <0>         0.0554
     47 H23         3.5221    4.8644   -0.7700 H         1 <0>         0.0591
@<TRIPOS>BOND
     1    1    2 1
     2    1   27 1
     3    1   28 1
     4    1   29 1
     5    2    7 ar
     6    2    3 ar
     7    3    4 ar
     8    3   30 1
     9    4    5 ar
    10    4   31 1
    11    5    6 ar
    12    5    8 1
    13    6    7 ar
    14    6   32 1
    15    7   33 1
    16    8   13 1
    17    8    9 2
    18    9   10 1
    19   10   11 2
    20   11   12 1
    21   11   13 1
    22   13   14 1
    23   14   15 1
    24   14   34 1
    25   14   35 1
    26   15   16 2
    27   15   17 am
    28   17   24 1
    29   17   18 1
    30   18   19 1
    31   18   36 1
    32   18   37 1
    33   19   20 1
    34   19   21 1
    35   19   26 1
    36   21   22 1
    37   21   38 1
    38   21   39 1
    39   22   23 1
    40   22   24 1
    41   22   25 1
    42   24   40 1
    43   24   41 1
    44   25   42 1
    45   25   43 1
    46   25   44 1
    47   26   45 1
    48   26   46 1
    49   26   47 1
@<TRIPOS>MOLECULE
ZINC04948466
   36    39     0     0     0
SMALL
USER_CHARGES

@<TRIPOS>ATOM
      1 C1          0.8557    1.6375    0.2850 C.ar      1 <0>        -0.1147
      2 C2          2.0601    2.1507    0.7467 C.ar      1 <0>        -0.1118
      3 C3          3.1123    1.2892    0.9969 C.ar      1 <0>        -0.0618
      4 C4          2.9475   -0.0573    0.7846 C.ar      1 <0>        -0.1630
      5 C5          1.7323   -0.6114    0.3146 C.ar      1 <0>         0.0940
      6 C6          0.6815    0.3062    0.0713 C.ar      1 <0>        -0.0702
      7 N1          1.7212   -1.9428    0.1553 N.2       1 <0>        -0.5230
      8 C7          2.7708   -2.6981    0.4171 C.2       1 <0>         0.2425
      9 S1          3.9764   -1.4949    0.9598 S.3       1 <0>         0.0197
     10 C8          2.9121   -4.1518    0.2948 C.2       1 <0>        -0.0016
     11 C9          1.8752   -4.8953   -0.1375 C.2       1 <0>        -0.0645
     12 C10         2.0542   -6.3352   -0.3833 C.ar      1 <0>        -0.0433
     13 C11         1.0752   -7.2444    0.0301 C.ar      1 <0>        -0.0978
     14 C12         1.2454   -8.5921   -0.2014 C.ar      1 <0>        -0.1095
     15 C13         2.3863   -9.0525   -0.8444 C.ar      1 <0>         0.0261
     16 C14         3.3672   -8.1514   -1.2595 C.ar      1 <0>         0.0341
     17 C15         3.2010   -6.7981   -1.0361 C.ar      1 <0>        -0.0822
     18 O1          4.3756   -8.8506   -1.8583 O.3       1 <0>        -0.3012
     19 C16         4.1956  -10.2170   -1.4417 C.3       1 <0>         0.2113
     20 O2          2.7824  -10.3134   -1.1844 O.3       1 <0>        -0.3140
     21 C17         4.2173   -4.8148    0.6525 C.3       1 <0>        -0.1684
     22 C18         5.1686   -4.7121   -0.5118 C.2       1 <0>         0.4993
     23 O3          4.8191   -4.1524   -1.5370 O.co2     1 <0>        -0.6793
     24 O4          6.2877   -5.1887   -0.4285 O.co2     1 <0>        -0.6892
     25 H1          0.0346    2.3127    0.0949 H         1 <0>         0.1282
     26 H2          2.1742    3.2124    0.9084 H         1 <0>         0.1331
     27 H3          4.0561    1.6723    1.3561 H         1 <0>         0.1299
     28 H4         -0.2703   -0.0560   -0.2881 H         1 <0>         0.1288
     29 H5          0.9126   -4.4347   -0.3036 H         1 <0>         0.1375
     30 H6          0.1863   -6.8904    0.5310 H         1 <0>         0.1391
     31 H7          0.4886   -9.2929    0.1188 H         1 <0>         0.1328
     32 H8          3.9576   -6.0994   -1.3611 H         1 <0>         0.1701
     33 H9          4.4875  -10.9017   -2.2380 H         1 <0>         0.1279
     34 H10         4.7647  -10.4187   -0.5342 H         1 <0>         0.0816
     35 H11         4.6508   -4.3186    1.5208 H         1 <0>         0.0718
     36 H12         4.0397   -5.8648    0.8851 H         1 <0>         0.0875
@<TRIPOS>BOND
     1    1    6 ar
     2    1    2 ar
     3    1   25 1
     4    2    3 ar
     5    2   26 1
     6    3    4 ar
     7    3   27 1
     8    4    9 1
     9    4    5 ar
    10    5    6 ar
    11    5    7 1
    12    6   28 1
    13    7    8 2
    14    8    9 1
    15    8   10 1
    16   10   11 2
    17   10   21 1
    18   11   12 1
    19   11   29 1
    20   12   17 ar
    21   12   13 ar
    22   13   14 ar
    23   13   30 1
    24   14   15 ar
    25   14   31 1
    26   15   20 1
    27   15   16 ar
    28   16   17 ar
    29   16   18 1
    30   17   32 1
    31   18   19 1
    32   19   20 1
    33   19   33 1
    34   19   34 1
    35   21   22 1
    36   21   35 1
    37   21   36 1
    38   22   23 2
    39   22   24 1
@<TRIPOS>MOLECULE
ZINC49121864
   29    30     0     0     0
SMALL
USER_CHARGES

@<TRIPOS>ATOM
      1 C1         -0.0338    1.5294    0.2591 C.3       1 <0>        -0.1390
      2 C2         -0.0085    0.0237   -0.0116 C.3       1 <0>        -0.0074
      3 C3          0.8183   -0.6751    1.0695 C.3       1 <0>        -0.1416
      4 C4         -1.4163   -0.5136    0.0068 C.2       1 <0>         0.1966
      5 N1         -2.2863   -0.3672    0.9725 N.2       1 <0>        -0.4535
      6 C5         -3.4152   -0.9958    0.5932 C.2       1 <0>         0.1616
      7 N2         -3.2093   -1.5140   -0.5998 N.2       1 <0>        -0.2711
      8 N3         -2.0094   -1.2281   -0.9726 N.pl3     1 <0>        -0.2894
      9 C6         -1.4189   -1.5996   -2.1879 C.ar      1 <0>         0.1819
     10 C7         -0.1798   -2.2259   -2.1965 C.ar      1 <0>        -0.0847
     11 C8          0.4000   -2.5910   -3.3965 C.ar      1 <0>        -0.0673
     12 C9         -0.2531   -2.3329   -4.5891 C.ar      1 <0>        -0.0829
     13 C10        -1.4866   -1.7090   -4.5839 C.ar      1 <0>        -0.0732
     14 C11        -2.0746   -1.3470   -3.3864 C.ar      1 <0>        -0.0707
     15 Br1        -3.7662   -0.5018   -3.3798 Br        1 <0>         0.0023
     16 Br2         2.0879   -3.4436   -3.4093 Br        1 <0>        -0.0297
     17 C12        -4.6621   -1.0879    1.3760 C.2       1 <0>         0.5738
     18 O1         -4.7323   -0.5629    2.4784 O.co2     1 <0>        -0.6582
     19 O2         -5.6257   -1.6894    0.9226 O.co2     1 <0>        -0.6615
     20 H1          0.9845    1.9181    0.2458 H         1 <0>         0.0633
     21 H2         -0.6228    2.0272   -0.5111 H         1 <0>         0.0539
     22 H3         -0.4809    1.7155    1.2356 H         1 <0>         0.0740
     23 H4          0.4387   -0.1624   -0.9881 H         1 <0>         0.0802
     24 H5          0.3711   -0.4890    2.0460 H         1 <0>         0.0731
     25 H6          0.8363   -1.7477    0.8766 H         1 <0>         0.0522
     26 H7          1.8366   -0.2864    1.0562 H         1 <0>         0.0663
     27 H8          0.3305   -2.4273   -1.2662 H         1 <0>         0.1498
     28 H9          0.2020   -2.6192   -5.5257 H         1 <0>         0.1490
     29 H10        -1.9938   -1.5086   -5.5161 H         1 <0>         0.1524
@<TRIPOS>BOND
     1    1    2 1
     2    1   20 1
     3    1   21 1
     4    1   22 1
     5    2    3 1
     6    2    4 1
     7    2   23 1
     8    3   24 1
     9    3   25 1
    10    3   26 1
    11    4    8 1
    12    4    5 2
    13    5    6 1
    14    6    7 2
    15    6   17 1
    16    7    8 1
    17    8    9 1
    18    9   14 ar
    19    9   10 ar
    20   10   11 ar
    21   10   27 1
    22   11   12 ar
    23   11   16 1
    24   12   13 ar
    25   12   28 1
    26   13   14 ar
    27   13   29 1
    28   14   15 1
    29   17   18 2
    30   17   19 1
@<TRIPOS>MOLECULE
ZINC53334242
   44    46     0     0     0
SMALL
USER_CHARGES

@<TRIPOS>ATOM
      1 C1         -0.3403    1.4892    0.1320 C.3       1 <0>        -0.1101
      2 C2         -0.2495   -0.0146    0.0971 C.ar      1 <0>        -0.0966
      3 C3         -0.2311   -0.6755   -1.1183 C.ar      1 <0>        -0.1152
      4 C4         -0.1486   -2.0521   -1.1573 C.ar      1 <0>        -0.0856
      5 C5         -0.0832   -2.7781    0.0330 C.ar      1 <0>         0.0201
      6 C6         -0.1017   -2.1052    1.2557 C.ar      1 <0>        -0.1211
      7 C7         -0.1792   -0.7280    1.2805 C.ar      1 <0>        -0.1139
      8 C8          0.0049   -4.2535   -0.0012 C.2       1 <0>         0.1519
      9 N1         -0.3239   -5.0315   -1.0060 N.2       1 <0>        -0.2714
     10 N2         -0.1200   -6.2613   -0.6935 N.2       1 <0>        -0.3398
     11 C9          0.3518   -6.3437    0.5306 C.2       1 <0>         0.3897
     12 N3          0.4526   -5.0696    1.0119 N.pl3     1 <0>        -0.4745
     13 C10         0.9345   -4.6579    2.3327 C.3       1 <0>         0.1010
     14 C11        -0.2140   -4.6557    3.3083 C.2       1 <0>         0.5064
     15 O1         -1.3257   -4.9673    2.9370 O.2       1 <0>        -0.5074
     16 N4         -0.0058   -4.3074    4.5936 N.am      1 <0>        -0.6132
     17 C12         1.3371   -3.9310    5.0421 C.3       1 <0>         0.0724
     18 C13        -1.1224   -4.3052    5.5420 C.3       1 <0>         0.1375
     19 C14        -1.2724   -2.9080    6.1784 C.3       1 <0>        -0.1330
     20 C15        -1.6736   -3.1999    7.6456 C.3       1 <0>        -0.1227
     21 C16        -0.8241   -4.4483    7.9903 C.3       1 <0>        -0.1223
     22 C17        -0.8373   -5.2846    6.6940 C.3       1 <0>        -0.1371
     23 S1          0.7799   -7.8220    1.3885 S.3       1 <0>        -0.8002
     24 H1          0.6634    1.9142    0.1171 H         1 <0>         0.0673
     25 H2         -0.8962    1.8399   -0.7375 H         1 <0>         0.0645
     26 H3         -0.8535    1.8012    1.0415 H         1 <0>         0.0630
     27 H4         -0.2818   -0.1125   -2.0386 H         1 <0>         0.1242
     28 H5         -0.1350   -2.5668   -2.1066 H         1 <0>         0.1342
     29 H6         -0.0517   -2.6612    2.1803 H         1 <0>         0.1166
     30 H7         -0.1892   -0.2058    2.2258 H         1 <0>         0.1204
     31 H8          1.6997   -5.3552    2.6739 H         1 <0>         0.1259
     32 H9          1.3587   -3.6559    2.2686 H         1 <0>         0.1108
     33 H10         1.4732   -2.8565    4.9194 H         1 <0>         0.0565
     34 H11         1.4563   -4.1946    6.0930 H         1 <0>         0.0758
     35 H12         2.0808   -4.4617    4.4478 H         1 <0>         0.0737
     36 H13        -2.0447   -4.5856    5.0332 H         1 <0>         0.1013
     37 H14        -0.3260   -2.3685    6.1418 H         1 <0>         0.0721
     38 H15        -2.0554   -2.3413    5.6744 H         1 <0>         0.0685
     39 H16        -1.4100   -2.3628    8.2921 H         1 <0>         0.0671
     40 H17        -2.7377   -3.4249    7.7177 H         1 <0>         0.0683
     41 H18         0.1948   -4.1576    8.2464 H         1 <0>         0.0647
     42 H19        -1.2798   -5.0058    8.8086 H         1 <0>         0.0655
     43 H20        -1.6217   -6.0398    6.7449 H         1 <0>         0.0713
     44 H21         0.1318   -5.7615    6.5475 H         1 <0>         0.0733
@<TRIPOS>BOND
     1    1    2 1
     2    1   24 1
     3    1   25 1
     4    1   26 1
     5    2    7 ar
     6    2    3 ar
     7    3    4 ar
     8    3   27 1
     9    4    5 ar
    10    4   28 1
    11    5    6 ar
    12    5    8 1
    13    6    7 ar
    14    6   29 1
    15    7   30 1
    16    8   12 1
    17    8    9 2
    18    9   10 1
    19   10   11 2
    20   11   23 1
    21   11   12 1
    22   12   13 1
    23   13   14 1
    24   13   31 1
    25   13   32 1
    26   14   15 2
    27   14   16 am
    28   16   17 1
    29   16   18 1
    30   17   33 1
    31   17   34 1
    32   17   35 1
    33   18   22 1
    34   18   19 1
    35   18   36 1
    36   19   20 1
    37   19   37 1
    38   19   38 1
    39   20   21 1
    40   20   39 1
    41   20   40 1
    42   21   22 1
    43   21   41 1
    44   21   42 1
    45   22   43 1
    46   22   44 1
@<TRIPOS>MOLECULE
ZINC66255050
   40    43     0     0     0
SMALL
USER_CHARGES

@<TRIPOS>ATOM
      1 C1         -0.0184    1.5028    0.0103 C.3       1 <0>        -0.1684
      2 C2          0.0021   -0.0041    0.0020 C.ar      1 <0>         0.0588
      3 C3          0.0058   -0.6883   -1.1989 C.ar      1 <0>        -0.1842
      4 C4          0.0250   -2.0725   -1.2062 C.ar      1 <0>         0.1444
      5 C5          0.0405   -2.7700   -0.0100 C.ar      1 <0>        -0.1875
      6 C6          0.0368   -2.0839    1.1893 C.ar      1 <0>         0.0065
      7 C7          0.0229   -0.7013    1.1953 C.ar      1 <0>        -0.6428
      8 S1          0.0249    0.1725    2.7255 S.o2      1 <0>         2.6262
      9 O1         -1.0150    1.1374    2.6435 O.2       1 <0>        -1.0001
     10 O2          0.0752   -0.8079    3.7529 O.2       1 <0>        -1.0049
     11 N1          1.4478    1.0157    2.8059 N.2       1 <0>        -1.0040
     12 C8          1.7254    1.8022    3.9121 C.2       1 <0>         0.4957
     13 N2          2.7868    2.5466    4.1622 N.2       1 <0>        -0.5820
     14 C9          2.8867    3.2457    5.2906 C.2       1 <0>         0.1394
     15 C10         1.8721    3.1900    6.2035 C.2       1 <0>        -0.2539
     16 S2          0.7380    2.0838    5.3749 S.3       1 <0>        -0.2155
     17 C11         4.0870    4.0759    5.5541 C.ar      1 <0>         0.0054
     18 C12         4.1892    4.8012    6.7403 C.ar      1 <0>        -0.1051
     19 C13         5.3083    5.5726    6.9813 C.ar      1 <0>        -0.0956
     20 C14         6.3257    5.6267    6.0489 C.ar      1 <0>        -0.1455
     21 C15         6.2292    4.9071    4.8668 C.ar      1 <0>        -0.1383
     22 C16         5.1198    4.1292    4.6187 C.ar      1 <0>        -0.0604
     23 C17         7.4869    5.1767    4.0739 C.3       1 <0>         0.0932
     24 O3          8.0662    6.3652    4.6427 O.3       1 <0>        -0.3657
     25 C18         7.6463    6.3611    6.0194 C.3       1 <0>         0.0948
     26 F1          0.0282   -2.7424   -2.3795 F         1 <0>        -0.1373
     27 H1          1.0042    1.8801    0.0026 H         1 <0>         0.0976
     28 H2         -0.5455    1.8639   -0.8728 H         1 <0>         0.0760
     29 H3         -0.5286    1.8543    0.9071 H         1 <0>         0.1113
     30 H4         -0.0067   -0.1433   -2.1312 H         1 <0>         0.1413
     31 H5          0.0552   -3.8499   -0.0145 H         1 <0>         0.1412
     32 H6          0.0485   -2.6276    2.1224 H         1 <0>         0.1512
     33 H7          1.7789    3.6820    7.1604 H         1 <0>         0.1765
     34 H8          3.3937    4.7599    7.4696 H         1 <0>         0.1305
     35 H9          5.3883    6.1347    7.9000 H         1 <0>         0.1234
     36 H10         5.0479    3.5659    3.7001 H         1 <0>         0.1396
     37 H11         8.1780    4.3392    4.1697 H         1 <0>         0.0755
     38 H12         7.2412    5.3435    3.0251 H         1 <0>         0.0970
     39 H13         7.5157    7.3831    6.3752 H         1 <0>         0.0929
     40 H14         8.3798    5.8396    6.6342 H         1 <0>         0.0729
@<TRIPOS>BOND
     1    1    2 1
     2    1   27 1
     3    1   28 1
     4    1   29 1
     5    2    7 ar
     6    2    3 ar
     7    3    4 ar
     8    3   30 1
     9    4    5 ar
    10    4   26 1
    11    5    6 ar
    12    5   31 1
    13    6    7 ar
    14    6   32 1
    15    7    8 1
    16    8    9 2
    17    8   10 2
    18    8   11 1
    19   11   12 1
    20   12   16 1
    21   12   13 2
    22   13   14 1
    23   14   15 2
    24   14   17 1
    25   15   16 1
    26   15   33 1
    27   17   22 ar
    28   17   18 ar
    29   18   19 ar
    30   18   34 1
    31   19   20 ar
    32   19   35 1
    33   20   25 1
    34   20   21 ar
    35   21   22 ar
    36   21   23 1
    37   22   36 1
    38   23   24 1
    39   23   37 1
    40   23   38 1
    41   24   25 1
    42   25   39 1
    43   25   40 1
@<TRIPOS>MOLECULE
ZINC02669819
   29    31     0     0     0
SMALL
USER_CHARGES
(5E)-5-[[5-(4-nitrophenyl)-2-thienyl]methylene]-2-thioxo-thiazolidin-4-one
@<TRIPOS>ATOM
      1 C1         -0.2130    0.4320   -1.0209 C.ar      1 <0>        -0.1304
      2 C2         -1.4628    0.9639   -1.2442 C.ar      1 <0>        -0.0318
      3 C3         -1.6245    2.3345   -1.3769 C.ar      1 <0>        -0.0313
      4 C4         -0.5302    3.1821   -1.2969 C.ar      1 <0>        -0.0359
      5 C5          0.7288    2.6697   -1.0798 C.ar      1 <0>        -0.1225
      6 C6          0.9027    1.2824   -0.9387 C.ar      1 <0>         0.0984
      7 C7          2.2379    0.7265   -0.7078 C.2       1 <0>        -0.2551
      8 C8          3.4749    1.4146   -0.6011 C.2       1 <0>        -0.1088
      9 C9          4.5885    0.7222   -0.3831 C.2       1 <0>        -0.1513
     10 C10         4.4647   -0.7429   -0.2775 C.2       1 <0>        -0.1418
     11 S1          2.7089   -0.9825   -0.4997 S.3       1 <0>         0.3164
     12 C11         5.4543   -1.6892   -0.0621 C.2       1 <0>         0.0167
     13 C12         5.1547   -2.8737    0.6315 C.2       1 <0>        -0.2220
     14 C13         3.9094   -3.2501    1.3636 C.2       1 <0>         0.5182
     15 O1          2.9550   -2.5026    1.4343 O.3       1 <0>        -0.4874
     16 N1          3.9044   -4.4475    1.9280 N.2       1 <0>        -0.6362
     17 C14         4.9852   -5.2472    1.8339 C.2       1 <0>         0.3715
     18 S2          5.2009   -6.8159    2.4847 S.2       1 <0>        -0.5373
     19 S3          6.1373   -4.2848    0.8710 S.3       1 <0>        -0.0929
     20 N2         -2.9738    2.8962   -1.6111 N.pl3     1 <0>        -0.0098
     21 O2         -3.1318    4.1970   -1.7428 O.2       1 <0>        -0.1847
     22 O3         -4.0164    2.0951   -1.6879 O.3       1 <0>        -0.1822
     23 H1         -0.0896   -0.6355   -0.9137 H         1 <0>         0.1486
     24 H2         -2.3209    0.3116   -1.3122 H         1 <0>         0.1571
     25 H3         -0.6660    4.2480   -1.4057 H         1 <0>         0.1557
     26 H4          1.5800    3.3315   -1.0185 H         1 <0>         0.1503
     27 H5          3.5104    2.4901   -0.6924 H         1 <0>         0.1321
     28 H6          5.5462    1.2129   -0.2916 H         1 <0>         0.1415
     29 H7          6.4743   -1.5127   -0.4342 H         1 <0>         0.1553
@<TRIPOS>BOND
     1    1    6 ar
     2    1    2 ar
     3    1   23 1
     4    2    3 ar
     5    2   24 1
     6    3    4 ar
     7    3   20 1
     8    4    5 ar
     9    4   25 1
    10    5    6 ar
    11    5   26 1
    12    6    7 1
    13    7   11 1
    14    7    8 2
    15    8    9 1
    16    8   27 1
    17    9   10 2
    18    9   28 1
    19   10   11 1
    20   10   12 1
    21   12   13 2
    22   12   29 1
    23   13   19 1
    24   13   14 1
    25   14   15 1
    26   14   16 2
    27   16   17 1
    28   17   18 2
    29   17   19 1
    30   20   21 2
    31   20   22 1
@<TRIPOS>MOLECULE
ZINC13744316
   39    42     0     0     0
SMALL
USER_CHARGES

@<TRIPOS>ATOM
      1 C1          5.1397   -4.0933   -2.3280 C.3       1 <0>        -0.1041
      2 C2          4.0521   -3.1005   -2.6481 C.ar      1 <0>         0.1419
      3 C3          2.7307   -3.4783   -2.5345 C.ar      1 <0>        -0.1758
      4 C4          1.7325   -2.5506   -2.8336 C.ar      1 <0>        -0.0494
      5 C5          2.1186   -1.2718   -3.2375 C.ar      1 <0>        -0.1673
      6 C6          3.4617   -0.9742   -3.3255 C.ar      1 <0>         0.1154
      7 N1          4.3764   -1.8788   -3.0285 N.ar      1 <0>        -0.4983
      8 S1          0.0291   -2.9825   -2.7053 S.3       1 <0>         0.0076
      9 C7          0.0529   -4.7044   -2.3324 C.ar      1 <0>        -0.1432
     10 C8         -0.0207   -5.1296   -1.0100 C.ar      1 <0>        -0.0874
     11 C9         -0.0023   -6.4756   -0.7159 C.ar      1 <0>        -0.1139
     12 C10         0.0902   -7.4124   -1.7459 C.ar      1 <0>        -0.0093
     13 C11         0.1638   -6.9835   -3.0715 C.ar      1 <0>        -0.0016
     14 C12         0.1393   -5.6366   -3.3611 C.ar      1 <0>        -0.0731
     15 C13         0.1106   -8.8599   -1.4323 C.ar      1 <0>        -0.0507
     16 C14         0.9830   -9.3552   -0.4662 C.ar      1 <0>        -0.1051
     17 C15         0.9984  -10.7044   -0.1769 C.ar      1 <0>        -0.1363
     18 C16         0.1499  -11.5739   -0.8421 C.ar      1 <0>        -0.1165
     19 C17        -0.7208  -11.1016   -1.8025 C.ar      1 <0>        -0.1046
     20 C18        -0.7544   -9.7410   -2.1038 C.ar      1 <0>         0.0587
     21 C19        -1.6897   -9.2288   -3.1276 C.2       1 <0>         0.0678
     22 N2         -2.5628   -9.9434   -3.8409 N.2       1 <0>        -0.3629
     23 N3         -3.1866   -9.1269   -4.6195 N.2       1 <0>        -0.1890
     24 N4         -2.7444   -7.9339   -4.4267 N.2       1 <0>        -0.1878
     25 N5         -1.8316   -7.9600   -3.5167 N.2       1 <0>        -0.3546
     26 H1          5.3939   -4.0252   -1.2702 H         1 <0>         0.0775
     27 H2          4.7900   -5.1007   -2.5535 H         1 <0>         0.0752
     28 H3          6.0219   -3.8720   -2.9286 H         1 <0>         0.0766
     29 H4          2.4723   -4.4783   -2.2189 H         1 <0>         0.1372
     30 H5          1.3755   -0.5258   -3.4781 H         1 <0>         0.1371
     31 H6          3.7698    0.0129   -3.6372 H         1 <0>         0.1574
     32 H7         -0.0918   -4.4041   -0.2131 H         1 <0>         0.1231
     33 H8         -0.0590   -6.8053    0.3109 H         1 <0>         0.1217
     34 H9          0.2357   -7.7068   -3.8703 H         1 <0>         0.1217
     35 H10         0.1919   -5.3043   -4.3874 H         1 <0>         0.1222
     36 H11         1.6478   -8.6833    0.0563 H         1 <0>         0.1212
     37 H12         1.6766  -11.0849    0.5726 H         1 <0>         0.1184
     38 H13         0.1702  -12.6280   -0.6079 H         1 <0>         0.1197
     39 H14        -1.3792  -11.7853   -2.3178 H         1 <0>         0.1304
@<TRIPOS>BOND
     1    1    2 1
     2    1   26 1
     3    1   27 1
     4    1   28 1
     5    2    7 ar
     6    2    3 ar
     7    3    4 ar
     8    3   29 1
     9    4    5 ar
    10    4    8 1
    11    5    6 ar
    12    5   30 1
    13    6    7 ar
    14    6   31 1
    15    8    9 1
    16    9   14 ar
    17    9   10 ar
    18   10   11 ar
    19   10   32 1
    20   11   12 ar
    21   11   33 1
    22   12   13 ar
    23   12   15 1
    24   13   14 ar
    25   13   34 1
    26   14   35 1
    27   15   20 ar
    28   15   16 ar
    29   16   17 ar
    30   16   36 1
    31   17   18 ar
    32   17   37 1
    33   18   19 ar
    34   18   38 1
    35   19   20 ar
    36   19   39 1
    37   20   21 1
    38   21   22 1
    39   21   25 2
    40   22   23 1
    41   23   24 2
    42   24   25 1
@<TRIPOS>MOLECULE
ZINC41926937
   36    37     0     0     0
SMALL
USER_CHARGES

@<TRIPOS>ATOM
      1 C1         -0.0187    1.5258    0.0104 C.3       1 <0>        -0.1372
      2 C2          0.0021   -0.0041    0.0020 C.3       1 <0>        -0.0896
      3 C3          0.7182   -0.4975   -1.2568 C.3       1 <0>        -0.1421
      4 C4          0.7421   -0.5109    1.2415 C.3       1 <0>         0.0496
      5 O1          0.0101   -0.1492    2.4144 O.3       1 <0>        -0.3660
      6 C5          0.6185   -0.5776    3.6344 C.3       1 <0>         0.1145
      7 C6          0.7448   -2.1024    3.6333 C.3       1 <0>        -0.1539
      8 C7         -0.2335   -0.1449    4.7996 C.2       1 <0>         0.0946
      9 C8          0.0512   -0.3809    6.0875 C.2       1 <0>        -0.1956
     10 C9         -1.0428    0.2146    6.8641 C.ar      1 <0>        -0.1161
     11 C10        -1.3326    0.3095    8.2246 C.ar      1 <0>        -0.0402
     12 C11        -2.4793    0.9556    8.6327 C.ar      1 <0>        -0.1120
     13 C12        -3.3417    1.5087    7.6957 C.ar      1 <0>        -0.0820
     14 C13        -3.0660    1.4213    6.3483 C.ar      1 <0>        -0.0968
     15 C14        -1.9150    0.7745    5.9160 C.ar      1 <0>         0.0567
     16 O2         -1.3866    0.5389    4.6979 O.3       1 <0>        -0.1753
     17 Br1        -2.8800    1.0890   10.4759 Br        1 <0>        -0.0576
     18 C15         1.9878    0.0398    3.7567 C.2       1 <0>         0.4921
     19 O3          2.4041    0.7782    2.8804 O.co2     1 <0>        -0.6613
     20 O4          2.6793   -0.1992    4.7320 O.co2     1 <0>        -0.6719
     21 H1          1.0039    1.9031    0.0027 H         1 <0>         0.0568
     22 H2         -0.5459    1.8868   -0.8726 H         1 <0>         0.0414
     23 H3         -0.5289    1.8773    0.9072 H         1 <0>         0.0603
     24 H4         -1.0205   -0.3814    0.0098 H         1 <0>         0.0648
     25 H5          1.7408   -0.1202   -1.2645 H         1 <0>         0.0576
     26 H6          0.7330   -1.5874   -1.2628 H         1 <0>         0.0508
     27 H7          0.1910   -0.1364   -2.1398 H         1 <0>         0.0542
     28 H8          0.8346   -1.5958    1.1912 H         1 <0>         0.0304
     29 H9          1.7350   -0.0630    1.2804 H         1 <0>         0.0968
     30 H10         1.3611   -2.4153    2.7905 H         1 <0>         0.0660
     31 H11         1.2089   -2.4291    4.5639 H         1 <0>         0.0753
     32 H12        -0.2456   -2.5489    3.5449 H         1 <0>         0.0547
     33 H13         0.9123   -0.9043    6.4760 H         1 <0>         0.1681
     34 H14        -0.6627   -0.1211    8.9542 H         1 <0>         0.1359
     35 H15        -4.2381    2.0124    8.0262 H         1 <0>         0.1393
     36 H16        -3.7446    1.8551    5.6288 H         1 <0>         0.1377
@<TRIPOS>BOND
     1    1    2 1
     2    1   21 1
     3    1   22 1
     4    1   23 1
     5    2    3 1
     6    2    4 1
     7    2   24 1
     8    3   25 1
     9    3   26 1
    10    3   27 1
    11    4    5 1
    12    4   28 1
    13    4   29 1
    14    5    6 1
    15    6    7 1
    16    6    8 1
    17    6   18 1
    18    7   30 1
    19    7   31 1
    20    7   32 1
    21    8   16 1
    22    8    9 2
    23    9   10 1
    24    9   33 1
    25   10   15 ar
    26   10   11 ar
    27   11   12 ar
    28   11   34 1
    29   12   13 ar
    30   12   17 1
    31   13   14 ar
    32   13   35 1
    33   14   15 ar
    34   14   36 1
    35   15   16 1
    36   18   19 2
    37   18   20 1
@<TRIPOS>MOLECULE
ZINC55306615
   28    30     0     0     0
SMALL
USER_CHARGES

@<TRIPOS>ATOM
      1 C1         -0.0181    1.3580   -0.0137 C.2       1 <0>        -0.0945
      2 C2          1.1905    2.0670   -0.0168 C.2       1 <0>        -0.1724
      3 C3          2.3681    1.4004   -0.0259 C.2       1 <0>         0.0978
      4 N1          2.3951    0.0419   -0.0317 N.pl3     1 <0>        -0.3274
      5 C4          1.2357   -0.6787   -0.0284 C.2       1 <0>         0.2267
      6 C5          0.0008   -0.0050   -0.0194 C.2       1 <0>        -0.0979
      7 N2          1.5337   -1.9776   -0.0358 N.2       1 <0>        -0.4983
      8 C6          2.8517   -2.1404   -0.0438 C.2       1 <0>         0.0717
      9 C7          3.4420   -0.8711   -0.0415 C.2       1 <0>        -0.0451
     10 C8          4.8138   -0.5800   -0.0483 C.2       1 <0>         0.4902
     11 O1          5.2266    0.6892   -0.0454 O.co2     1 <0>        -0.7082
     12 O2          5.7065   -1.5721   -0.0575 O.co2     1 <0>        -0.6668
     13 S1          3.7060   -3.6814   -0.0553 S.3       1 <0>         0.1518
     14 C9          2.4243   -4.8806    0.0991 C.ar      1 <0>        -0.1491
     15 C10         1.8901   -5.4791   -1.0358 C.ar      1 <0>        -0.0431
     16 C11         0.8862   -6.4188   -0.9116 C.ar      1 <0>        -0.1275
     17 C12         0.4113   -6.7648    0.3405 C.ar      1 <0>        -0.0708
     18 C13         0.9402   -6.1708    1.4728 C.ar      1 <0>        -0.1017
     19 C14         1.9495   -5.2341    1.3558 C.ar      1 <0>        -0.0285
     20 Br1         0.2864   -6.6466    3.1822 Br        1 <0>        -0.0570
     21 H1         -0.9589    1.8882   -0.0023 H         1 <0>         0.1381
     22 H2          1.1822    3.1470   -0.0123 H         1 <0>         0.1487
     23 H3          3.2956    1.9536   -0.0290 H         1 <0>         0.1808
     24 H4         -0.9240   -0.5627   -0.0174 H         1 <0>         0.1450
     25 H5          2.2597   -5.2091   -2.0140 H         1 <0>         0.1358
     26 H6          0.4709   -6.8840   -1.7934 H         1 <0>         0.1333
     27 H7         -0.3743   -7.4998    0.4346 H         1 <0>         0.1315
     28 H8          2.3653   -4.7739    2.2400 H         1 <0>         0.1369
@<TRIPOS>BOND
     1    1    6 2
     2    1    2 1
     3    1   21 1
     4    2    3 2
     5    2   22 1
     6    3    4 1
     7    3   23 1
     8    4    9 1
     9    4    5 1
    10    5    6 1
    11    5    7 2
    12    6   24 1
    13    7    8 1
    14    8    9 2
    15    8   13 1
    16    9   10 1
    17   10   11 2
    18   10   12 1
    19   13   14 1
    20   14   19 ar
    21   14   15 ar
    22   15   16 ar
    23   15   25 1
    24   16   17 ar
    25   16   26 1
    26   17   18 ar
    27   17   27 1
    28   18   19 ar
    29   18   20 1
    30   19   28 1
@<TRIPOS>MOLECULE
ZINC65003845
   38    40     0     0     0
SMALL
USER_CHARGES

@<TRIPOS>ATOM
      1 C1         -0.0184    1.5028    0.0103 C.3       1 <0>        -0.0891
      2 C2          0.0021   -0.0041    0.0020 C.ar      1 <0>        -0.1959
      3 C3          0.0057   -0.6874   -1.2004 C.ar      1 <0>        -0.0677
      4 C4          0.0244   -2.0681   -1.2116 C.ar      1 <0>        -0.2607
      5 C5          0.0396   -2.7708   -0.0132 C.ar      1 <0>         0.2772
      6 C6          0.0359   -2.0814    1.1925 C.ar      1 <0>        -0.1502
      7 C7          0.0229   -0.7002    1.1965 C.ar      1 <0>        -0.0773
      8 C8          0.0518   -2.8394    2.4949 C.3       1 <0>        -0.0789
      9 N1          0.0581   -4.1674   -0.0209 N.2       1 <0>        -1.0807
     10 S1          0.0619   -4.9875   -1.4596 S.o2      1 <0>         2.6247
     11 O1         -1.1901   -4.7266   -2.0791 O.2       1 <0>        -1.0182
     12 O2          1.3004   -4.6936   -2.0913 O.2       1 <0>        -1.0199
     13 C9          0.0866   -6.7076   -1.0786 C.2       1 <0>        -0.6599
     14 C10        -0.9576   -7.5558   -0.8944 C.2       1 <0>        -0.0457
     15 C11        -0.7054   -8.8778   -0.6012 C.2       1 <0>        -0.1489
     16 C12         0.5984   -9.2934   -0.5052 C.2       1 <0>        -0.1026
     17 S2          1.4908   -7.7845   -0.8434 S.3       1 <0>         0.2200
     18 C13         1.1247  -10.6354   -0.2063 C.2       1 <0>         0.0409
     19 C14         2.4348  -10.9920   -0.1177 C.2       1 <0>        -0.0097
     20 N2          2.4777  -12.3013    0.1702 N.2       1 <0>        -0.4778
     21 C15         1.2591  -12.7549    0.2602 C.2       1 <0>         0.1937
     22 O3          0.3996  -11.7495    0.0387 O.3       1 <0>        -0.1916
     23 C16         0.8770  -14.1794    0.5696 C.3       1 <0>        -0.0566
     24 H1          1.0042    1.8801    0.0026 H         1 <0>         0.0495
     25 H2         -0.5455    1.8639   -0.8728 H         1 <0>         0.0498
     26 H3         -0.5286    1.8543    0.9071 H         1 <0>         0.0504
     27 H4         -0.0065   -0.1406   -2.1317 H         1 <0>         0.1006
     28 H5          0.0269   -2.6011   -2.1509 H         1 <0>         0.0959
     29 H6          0.0244   -0.1634    2.1336 H         1 <0>         0.1037
     30 H7          1.0832   -3.0085    2.8043 H         1 <0>         0.0467
     31 H8         -0.4663   -2.2598    3.2590 H         1 <0>         0.0370
     32 H9         -0.4499   -3.7980    2.3635 H         1 <0>         0.0713
     33 H10        -1.9733   -7.1982   -0.9763 H         1 <0>         0.1507
     34 H11        -1.5178   -9.5731   -0.4497 H         1 <0>         0.1412
     35 H12         3.2848  -10.3399   -0.2546 H         1 <0>         0.1909
     36 H13         0.7768  -14.3027    1.6480 H         1 <0>         0.0948
     37 H14        -0.0718  -14.4141    0.0873 H         1 <0>         0.0894
     38 H15         1.6499  -14.8519    0.1974 H         1 <0>         0.1029
@<TRIPOS>BOND
     1    1    2 1
     2    1   24 1
     3    1   25 1
     4    1   26 1
     5    2    7 ar
     6    2    3 ar
     7    3    4 ar
     8    3   27 1
     9    4    5 ar
    10    4   28 1
    11    5    6 ar
    12    5    9 1
    13    6    7 ar
    14    6    8 1
    15    7   29 1
    16    8   30 1
    17    8   31 1
    18    8   32 1
    19    9   10 1
    20   10   11 2
    21   10   12 2
    22   10   13 1
    23   13   17 1
    24   13   14 2
    25   14   15 1
    26   14   33 1
    27   15   16 2
    28   15   34 1
    29   16   17 1
    30   16   18 1
    31   18   22 1
    32   18   19 2
    33   19   20 1
    34   19   35 1
    35   20   21 2
    36   21   22 1
    37   21   23 1
    38   23   36 1
    39   23   37 1
    40   23   38 1
@<TRIPOS>MOLECULE
ZINC06450189
   39    42     0     0     0
SMALL
USER_CHARGES
(2R,7S)-7-methyl-2-(5-methyl-2-thienyl)-1,2,5,6,7,8-hexahydrobenzothiopheno[3,2-e]pyrimidin-4-ol
@<TRIPOS>ATOM
      1 C1         -1.9453    3.1143    6.0334 C.3       1 <0>        -0.0748
      2 C2         -1.4501    3.5212    4.6694 C.2       1 <0>        -0.1390
      3 C3         -0.5285    4.4592    4.3407 C.2       1 <0>        -0.1658
      4 C4         -0.2277    4.6650    3.0074 C.2       1 <0>        -0.1249
      5 C5         -0.8632    3.9228    2.0680 C.2       1 <0>        -0.1783
      6 S1         -1.9301    2.8976    3.0669 S.3       1 <0>         0.0445
      7 C6         -0.7131    3.9584    0.5689 C.3       1 <0>         0.4423
      8 H1         -1.3852    4.6911    0.0984 H         1 <0>         0.1245
      9 N1         -1.0397    2.6289    0.0212 N.pl3     1 <0>        -0.7166
     10 C7         -0.0211    1.7066    0.0114 C.2       1 <0>         0.1462
     11 C8          1.3284    2.0794    0.0005 C.2       1 <0>        -0.2551
     12 C9          2.2878    0.9890   -0.0193 C.2       1 <0>        -0.0324
     13 C10         1.7578   -0.2560   -0.0209 C.2       1 <0>        -0.2086
     14 S2          0.0021   -0.0041    0.0020 S.3       1 <0>         0.1378
     15 C11         2.5009   -1.5552   -0.0383 C.3       1 <0>        -0.0261
     16 C12         3.9685   -1.2791    0.3199 C.3       1 <0>        -0.0847
     17 H2          4.0581   -1.0437    1.3907 H         1 <0>         0.0754
     18 C13         4.4653   -0.0961   -0.5161 C.3       1 <0>        -0.1158
     19 C14         3.7980    1.1946   -0.0385 C.3       1 <0>        -0.0586
     20 C15         4.8135   -2.5165    0.0106 C.3       1 <0>        -0.1495
     21 C16         1.6338    3.5332    0.0161 C.2       1 <0>         0.4796
     22 N2          0.6485    4.3588    0.2370 N.2       1 <0>        -0.6498
     23 O1          2.8918    3.9857   -0.1924 O.3       1 <0>        -0.4840
     24 H3         -1.4306    3.7086    6.8027 H         1 <0>         0.0825
     25 H4         -1.7377    2.0463    6.1953 H         1 <0>         0.0774
     26 H5         -3.0291    3.2910    6.0977 H         1 <0>         0.0780
     27 H6         -0.0368    5.0373    5.1091 H         1 <0>         0.1320
     28 H7          0.5031    5.4059    2.7184 H         1 <0>         0.1344
     29 H8         -2.0539    2.4212   -0.3507 H         1 <0>         0.4415
     30 H9          2.0567   -2.2416    0.6976 H         1 <0>         0.0770
     31 H10         2.4360   -2.0014   -1.0417 H         1 <0>         0.0798
     32 H11         5.5559   -0.0027   -0.4074 H         1 <0>         0.0700
     33 H12         4.2153   -0.2641   -1.5741 H         1 <0>         0.0663
     34 H13         4.0472    2.0185   -0.7234 H         1 <0>         0.0859
     35 H14         4.1473    1.4418    0.9748 H         1 <0>         0.0754
     36 H15         5.8642   -2.3167    0.2678 H         1 <0>         0.0587
     37 H16         4.7371   -2.7542   -1.0607 H         1 <0>         0.0570
     38 H17         4.4467   -3.3682    0.6023 H         1 <0>         0.0572
     39 H18         3.0973    5.0662   -0.1769 H         1 <0>         0.4407
@<TRIPOS>BOND
     1    1    2 1
     2    1   24 1
     3    1   25 1
     4    1   26 1
     5    2    6 1
     6    2    3 2
     7    3    4 1
     8    3   27 1
     9    4    5 2
    10    4   28 1
    11    5    6 1
    12    5    7 1
    13    7    8 1
    14    7   22 1
    15    7    9 1
    16    9   10 1
    17    9   29 1
    18   10   14 1
    19   10   11 2
    20   11   12 1
    21   11   21 1
    22   12   19 1
    23   12   13 2
    24   13   14 1
    25   13   15 1
    26   15   16 1
    27   15   30 1
    28   15   31 1
    29   16   17 1
    30   16   18 1
    31   16   20 1
    32   18   19 1
    33   18   32 1
    34   18   33 1
    35   19   34 1
    36   19   35 1
    37   20   36 1
    38   20   37 1
    39   20   38 1
    40   21   22 2
    41   21   23 1
    42   23   39 1
@<TRIPOS>MOLECULE
ZINC37352269
   31    33     0     0     0
SMALL
USER_CHARGES

@<TRIPOS>ATOM
      1 C1         -0.0167    1.3786    0.0096 C.ar      1 <0>        -0.1242
      2 C2          1.1696    2.0892    0.0021 C.ar      1 <0>        -0.0947
      3 C3          2.3774    1.4193   -0.0130 C.ar      1 <0>        -0.1121
      4 C4          2.3996    0.0309   -0.0206 C.ar      1 <0>         0.1599
      5 C5          1.2065   -0.6797   -0.0130 C.ar      1 <0>        -0.1484
      6 C6          0.0021   -0.0041    0.0020 C.ar      1 <0>        -0.0931
      7 N1          3.6229   -0.6515   -0.0364 N.pl3     1 <0>        -0.3477
      8 C7          3.8870   -1.8356    0.5822 C.2       1 <0>         0.3731
      9 C8          5.1826   -2.1560    0.3242 C.2       1 <0>        -0.3249
     10 C9          5.7269   -1.1347   -0.4776 C.2       1 <0>         0.1492
     11 N2          4.7874   -0.2386   -0.6961 N.2       1 <0>        -0.2871
     12 C10         7.1174   -1.0809   -0.9930 C.ar      1 <0>        -0.0113
     13 C11         8.0134   -2.1063   -0.6962 C.ar      1 <0>        -0.0734
     14 C12         9.3054   -2.0515   -1.1780 C.ar      1 <0>        -0.1154
     15 C13         9.7121   -0.9812   -1.9543 C.ar      1 <0>        -0.0769
     16 C14         8.8270    0.0397   -2.2522 C.ar      1 <0>        -0.1028
     17 C15         7.5301   -0.0080   -1.7800 C.ar      1 <0>        -0.0568
     18 I1          9.4528    1.6563   -3.4287 I         1 <0>        -0.0383
     19 N3          2.9918   -2.5830    1.3421 N.pl3     1 <0>        -0.8539
     20 H1         -0.9598    1.9047    0.0260 H         1 <0>         0.1310
     21 H2          1.1517    3.1690    0.0077 H         1 <0>         0.1340
     22 H3          3.3035    1.9748   -0.0192 H         1 <0>         0.1349
     23 H4          1.2205   -1.7596   -0.0193 H         1 <0>         0.1290
     24 H5         -0.9261   -0.5562    0.0082 H         1 <0>         0.1341
     25 H6          5.7019   -3.0366    0.6724 H         1 <0>         0.1538
     26 H7          7.6972   -2.9423   -0.0899 H         1 <0>         0.1355
     27 H8         10.0004   -2.8455   -0.9482 H         1 <0>         0.1370
     28 H9         10.7243   -0.9422   -2.3289 H         1 <0>         0.1319
     29 H10         6.8384    0.7868   -2.0170 H         1 <0>         0.1366
     30 H11         2.0831   -2.2683    1.4695 H         1 <0>         0.4026
     31 H12         3.2766   -3.4185    1.7443 H         1 <0>         0.4183
@<TRIPOS>BOND
     1    1    6 ar
     2    1    2 ar
     3    1   20 1
     4    2    3 ar
     5    2   21 1
     6    3    4 ar
     7    3   22 1
     8    4    5 ar
     9    4    7 1
    10    5    6 ar
    11    5   23 1
    12    6   24 1
    13    7   11 1
    14    7    8 1
    15    8    9 2
    16    8   19 1
    17    9   10 1
    18    9   25 1
    19   10   11 2
    20   10   12 1
    21   12   17 ar
    22   12   13 ar
    23   13   14 ar
    24   13   26 1
    25   14   15 ar
    26   14   27 1
    27   15   16 ar
    28   15   28 1
    29   16   17 ar
    30   16   18 1
    31   17   29 1
    32   19   30 1
    33   19   31 1
@<TRIPOS>MOLECULE
ZINC43666526
   30    32     0     0     0
SMALL
USER_CHARGES

@<TRIPOS>ATOM
      1 C1         -0.0164    1.3567    0.0095 C.ar      1 <0>        -0.1112
      2 C2          1.1686    2.0905    0.0021 C.ar      1 <0>        -0.1149
      3 C3          2.3785    1.4675   -0.0131 C.ar      1 <0>        -0.1049
      4 C4          2.4375    0.0634   -0.0211 C.ar      1 <0>        -0.0543
      5 C5          3.6681   -0.6153   -0.0364 C.ar      1 <0>        -0.0832
      6 C6          3.6865   -1.9761   -0.0434 C.ar      1 <0>        -0.1124
      7 C7          2.5015   -2.7098   -0.0357 C.ar      1 <0>        -0.0918
      8 C8          1.2917   -2.0868   -0.0209 C.ar      1 <0>        -0.1037
      9 C9          1.2327   -0.6827   -0.0133 C.ar      1 <0>        -0.0440
     10 C10         0.0021   -0.0041    0.0020 C.ar      1 <0>        -0.1078
     11 C11         5.0079   -2.7004   -0.0602 C.3       1 <0>         0.1759
     12 N1          5.4499   -2.9421    1.3155 N.pl3     1 <0>        -0.3892
     13 C12         6.2142   -2.1091    2.0681 C.2       1 <0>         0.4091
     14 C13         6.3960   -2.7041    3.2797 C.2       1 <0>        -0.3206
     15 C14         5.7240   -3.9295    3.2602 C.2       1 <0>         0.1100
     16 N2          5.1543   -4.0705    2.0908 N.2       1 <0>        -0.2908
     17 I1          7.4891   -1.9220    4.8866 I         1 <0>        -0.0181
     18 N3          6.7196   -0.8731    1.6733 N.pl3     1 <0>        -0.8486
     19 H1         -0.9633    1.8757    0.0259 H         1 <0>         0.1254
     20 H2          1.1260    3.1696    0.0083 H         1 <0>         0.1252
     21 H3          3.2884    2.0491   -0.0194 H         1 <0>         0.1269
     22 H4          4.5943   -0.0599   -0.0428 H         1 <0>         0.1217
     23 H5          2.5441   -3.7890   -0.0419 H         1 <0>         0.1281
     24 H6          0.3816   -2.6684   -0.0154 H         1 <0>         0.1309
     25 H7         -0.9241   -0.5595    0.0082 H         1 <0>         0.1291
     26 H8          4.8935   -3.6529   -0.5777 H         1 <0>         0.1110
     27 H9          5.7491   -2.0921   -0.5784 H         1 <0>         0.0962
     28 H10         5.6792   -4.6382    4.0739 H         1 <0>         0.1861
     29 H11         6.5329   -0.5345    0.7837 H         1 <0>         0.4011
     30 H12         7.2583   -0.3507    2.2879 H         1 <0>         0.4188
@<TRIPOS>BOND
     1    1   10 ar
     2    1    2 ar
     3    1   19 1
     4    2    3 ar
     5    2   20 1
     6    3    4 ar
     7    3   21 1
     8    4    9 ar
     9    4    5 ar
    10    5    6 ar
    11    5   22 1
    12    6    7 ar
    13    6   11 1
    14    7    8 ar
    15    7   23 1
    16    8    9 ar
    17    8   24 1
    18    9   10 ar
    19   10   25 1
    20   11   12 1
    21   11   26 1
    22   11   27 1
    23   12   16 1
    24   12   13 1
    25   13   14 2
    26   13   18 1
    27   14   15 1
    28   14   17 1
    29   15   16 2
    30   15   28 1
    31   18   29 1
    32   18   30 1
@<TRIPOS>MOLECULE
ZINC50871091
   26    28     0     0     0
SMALL
USER_CHARGES

@<TRIPOS>ATOM
      1 C1         -0.0169    1.3969    0.0097 C.ar      1 <0>        -0.0299
      2 C2          1.1591    2.0873    0.0022 C.ar      1 <0>        -0.1086
      3 C3          2.3797    1.4162   -0.0137 C.ar      1 <0>        -0.0364
      4 C4          2.4325    0.0551   -0.0217 C.ar      1 <0>        -0.0747
      5 C5          1.2398   -0.6901   -0.0133 C.ar      1 <0>         0.2068
      6 C6          0.0021   -0.0041    0.0020 C.ar      1 <0>        -0.1513
      7 C7         -1.1941   -0.7593    0.0092 C.ar      1 <0>         0.2949
      8 C8         -1.0938   -2.1423    0.0028 C.ar      1 <0>        -0.2540
      9 C9          0.1576   -2.7459   -0.0111 C.ar      1 <0>         0.2139
     10 N1          1.2616   -2.0259   -0.0189 N.ar      1 <0>        -0.5091
     11 C10        -0.0108   -4.2529   -0.0153 C.3       1 <0>        -0.0756
     12 C11        -1.4639   -4.5007    0.4403 C.3       1 <0>        -0.1174
     13 C12        -2.1751   -3.2007    0.0093 C.3       1 <0>        -0.0640
     14 N2         -2.4319   -0.1342    0.0227 N.pl3     1 <0>        -0.8470
     15 Br1         4.1038   -0.8294   -0.0448 Br        1 <0>        -0.0122
     16 Br2         1.1326    3.9781    0.0129 Br        1 <0>        -0.0331
     17 H1         -0.9577    1.9271    0.0260 H         1 <0>         0.1374
     18 H2          3.2984    1.9839   -0.0201 H         1 <0>         0.1488
     19 H3          0.1428   -4.6475   -1.0197 H         1 <0>         0.0963
     20 H4          0.6879   -4.7132    0.6833 H         1 <0>         0.0913
     21 H5         -1.8889   -5.3630   -0.0733 H         1 <0>         0.0847
     22 H6         -1.5140   -4.6292    1.5215 H         1 <0>         0.0767
     23 H7         -2.9547   -2.9406    0.7253 H         1 <0>         0.0712
     24 H8         -2.5992   -3.3143   -0.9884 H         1 <0>         0.0783
     25 H9         -2.4862    0.8343    0.0273 H         1 <0>         0.4036
     26 H10        -3.2435   -0.6654    0.0274 H         1 <0>         0.4097
@<TRIPOS>BOND
     1    1    6 ar
     2    1    2 ar
     3    1   17 1
     4    2    3 ar
     5    2   16 1
     6    3    4 ar
     7    3   18 1
     8    4    5 ar
     9    4   15 1
    10    5   10 ar
    11    5    6 ar
    12    6    7 ar
    13    7    8 ar
    14    7   14 1
    15    8   13 1
    16    8    9 ar
    17    9   10 ar
    18    9   11 1
    19   11   12 1
    20   11   19 1
    21   11   20 1
    22   12   13 1
    23   12   21 1
    24   12   22 1
    25   13   23 1
    26   13   24 1
    27   14   25 1
    28   14   26 1
@<TRIPOS>MOLECULE
ZINC62702871
   28    29     0     0     0
SMALL
USER_CHARGES

@<TRIPOS>ATOM
      1 C1         -0.0167    1.3782    0.0096 C.ar      1 <0>        -0.0657
      2 C2          1.1696    2.0868    0.0021 C.ar      1 <0>        -0.1401
      3 C3          2.3802    1.4104   -0.0130 C.ar      1 <0>         0.1476
      4 C4          2.3968    0.0222   -0.0206 C.ar      1 <0>        -0.1244
      5 C5          1.2075   -0.6816   -0.0130 C.ar      1 <0>        -0.0545
      6 C6          0.0021   -0.0041    0.0020 C.ar      1 <0>        -0.1183
      7 C7         -1.2934   -0.7739    0.0107 C.3       1 <0>         0.1651
      8 N1         -1.7269   -1.0160   -1.3676 N.pl3     1 <0>        -0.7322
      9 C8         -2.9125   -1.7177   -1.6155 C.ar      1 <0>         0.2114
     10 C9         -3.6811   -2.1796   -0.5560 C.ar      1 <0>        -0.1877
     11 C10        -4.8524   -2.8728   -0.8031 C.ar      1 <0>         0.1152
     12 C11        -5.2587   -3.1063   -2.1081 C.ar      1 <0>         0.0366
     13 C12        -4.4933   -2.6468   -3.1660 C.ar      1 <0>        -0.1104
     14 C13        -3.3247   -1.9479   -2.9231 C.ar      1 <0>         0.0430
     15 F1         -2.5812   -1.4945   -3.9560 F         1 <0>        -0.1289
     16 F2         -6.4029   -3.7835   -2.3475 F         1 <0>        -0.1247
     17 F3         -5.6007   -3.3231    0.2277 F         1 <0>        -0.1208
     18 Br1         4.0450   -0.9046   -0.0419 Br        1 <0>        -0.0295
     19 O1          3.5483    2.1053   -0.0209 O.3       1 <0>        -0.4854
     20 H1         -0.9595    1.9047    0.0259 H         1 <0>         0.1378
     21 H2          1.1541    3.1667    0.0077 H         1 <0>         0.1427
     22 H3          1.2195   -1.7615   -0.0189 H         1 <0>         0.1399
     23 H4         -1.1461   -1.7274    0.5180 H         1 <0>         0.0788
     24 H5         -2.0553   -0.1972    0.5352 H         1 <0>         0.0802
     25 H6         -1.1923   -0.6900   -2.1085 H         1 <0>         0.4109
     26 H7         -3.3647   -1.9982    0.4606 H         1 <0>         0.1550
     27 H8         -4.8113   -2.8300   -4.1817 H         1 <0>         0.1597
     28 H9          3.8949    2.3019    0.8601 H         1 <0>         0.3985
@<TRIPOS>BOND
     1    1    6 ar
     2    1    2 ar
     3    1   20 1
     4    2    3 ar
     5    2   21 1
     6    3    4 ar
     7    3   19 1
     8    4    5 ar
     9    4   18 1
    10    5    6 ar
    11    5   22 1
    12    6    7 1
    13    7    8 1
    14    7   23 1
    15    7   24 1
    16    8    9 1
    17    8   25 1
    18    9   14 ar
    19    9   10 ar
    20   10   11 ar
    21   10   26 1
    22   11   12 ar
    23   11   17 1
    24   12   13 ar
    25   12   16 1
    26   13   14 ar
    27   13   27 1
    28   14   15 1
    29   19   28 1
@<TRIPOS>MOLECULE
ZINC37053982
   30    31     0     0     0
SMALL
USER_CHARGES

@<TRIPOS>ATOM
      1 C1         -0.0683    1.6354    0.0172 C.ar      1 <0>        -0.2043
      2 C2          1.1614    2.2632   -0.0222 C.ar      1 <0>         0.0338
      3 C3          2.3232    1.5155    0.0280 C.ar      1 <0>        -0.7165
      4 C4          2.2583    0.1359    0.1173 C.ar      1 <0>         0.0493
      5 C5          1.0313   -0.4981    0.1567 C.ar      1 <0>        -0.1873
      6 C6         -0.1375    0.2511    0.1074 C.ar      1 <0>         0.2760
      7 N1         -1.3796   -0.3864    0.1474 N.pl3     1 <0>        -0.8594
      8 Br1         3.8503   -0.8823    0.1850 Br        1 <0>        -0.0197
      9 S1          3.8897    2.3205   -0.0226 S.o2      1 <0>         2.6836
     10 O1          4.6812    1.6100   -0.9649 O.2       1 <0>        -0.9380
     11 O2          3.6275    3.7119   -0.1432 O.2       1 <0>        -0.9532
     12 N2          4.6017    2.0995    1.4560 N.pl3     1 <0>        -0.9954
     13 C7          5.6091    1.0509    1.6238 C.3       1 <0>         0.1072
     14 C8          6.9688    1.6921    1.9237 C.3       1 <0>        -0.1008
     15 S2          6.8064    2.7341    3.4048 S.3       1 <0>        -0.2528
     16 C9          5.4102    3.8235    2.9929 C.3       1 <0>        -0.1006
     17 C10         4.2205    2.9590    2.5778 C.3       1 <0>         0.1202
     18 H1         -0.9753    2.2207   -0.0175 H         1 <0>         0.1391
     19 H2          1.2155    3.3396   -0.0927 H         1 <0>         0.1518
     20 H3          0.9809   -1.5747    0.2258 H         1 <0>         0.1412
     21 H4         -2.1951    0.1376    0.1123 H         1 <0>         0.4074
     22 H5         -1.4268   -1.3532    0.2104 H         1 <0>         0.4062
     23 H6          5.3232    0.4014    2.4512 H         1 <0>         0.0903
     24 H7          5.6783    0.4637    0.7081 H         1 <0>         0.1127
     25 H8          7.7090    0.9126    2.1042 H         1 <0>         0.1195
     26 H9          7.2787    2.3052    1.0774 H         1 <0>         0.0895
     27 H10         5.1432    4.4212    3.8644 H         1 <0>         0.1202
     28 H11         5.6889    4.4792    2.1680 H         1 <0>         0.0919
     29 H12         3.3938    3.6028    2.2776 H         1 <0>         0.0986
     30 H13         3.9119    2.3407    3.4208 H         1 <0>         0.0895
@<TRIPOS>BOND
     1    1    6 ar
     2    1    2 ar
     3    1   18 1
     4    2    3 ar
     5    2   19 1
     6    3    4 ar
     7    3    9 1
     8    4    5 ar
     9    4    8 1
    10    5    6 ar
    11    5   20 1
    12    6    7 1
    13    7   21 1
    14    7   22 1
    15    9   10 2
    16    9   11 2
    17    9   12 1
    18   12   17 1
    19   12   13 1
    20   13   14 1
    21   13   23 1
    22   13   24 1
    23   14   15 1
    24   14   25 1
    25   14   26 1
    26   15   16 1
    27   16   17 1
    28   16   27 1
    29   16   28 1
    30   17   29 1
    31   17   30 1
@<TRIPOS>MOLECULE
ZINC40968642
   32    33     0     0     0
SMALL
USER_CHARGES

@<TRIPOS>ATOM
      1 C1         -0.0167    1.3782    0.0096 C.ar      1 <0>        -0.0355
      2 C2          1.1707    2.0857    0.0021 C.ar      1 <0>        -0.1093
      3 C3          2.3778    1.4105   -0.0131 C.ar      1 <0>        -0.0557
      4 C4          2.3961    0.0274   -0.0207 C.ar      1 <0>        -0.1061
      5 C5          1.2082   -0.6793   -0.0132 C.ar      1 <0>        -0.0455
      6 C6          0.0021   -0.0041    0.0020 C.ar      1 <0>        -0.4528
      7 S1         -1.5119   -0.9055    0.0117 S.o       1 <0>         1.3465
      8 O1         -1.1605   -2.1616    0.5754 O.2       1 <0>        -0.8334
      9 C7         -1.9058   -1.1205   -1.7459 C.3       1 <0>        -0.4809
     10 C8         -3.2158   -1.8989   -1.8835 C.3       1 <0>         0.1188
     11 N1         -3.5339   -2.0726   -3.3029 N.am      1 <0>        -0.4749
     12 C9         -4.2802   -1.1333   -3.9445 C.2       1 <0>         0.0184
     13 C10        -4.5869   -1.2745   -5.2606 C.2       1 <0>         0.1086
     14 C11        -4.1302   -2.4005   -5.9683 C.2       1 <0>        -0.0525
     15 C12        -3.3825   -3.3378   -5.3185 C.2       1 <0>        -0.2047
     16 C13        -3.0796   -3.1572   -3.9587 C.2       1 <0>         0.4982
     17 O2         -2.4065   -3.9879   -3.3690 O.2       1 <0>        -0.5567
     18 N2         -5.3577   -0.2996   -5.9118 N.pl3     1 <0>        -0.8793
     19 Br1         4.0026    2.3779   -0.0240 Br        1 <0>        -0.0396
     20 H1         -0.9592    1.9053    0.0260 H         1 <0>         0.1481
     21 H2          1.1559    3.1656    0.0077 H         1 <0>         0.1414
     22 H3          3.3384   -0.5003   -0.0329 H         1 <0>         0.1371
     23 H4          1.2224   -1.7592   -0.0191 H         1 <0>         0.1372
     24 H5         -2.0127   -0.1432   -2.2166 H         1 <0>         0.1216
     25 H6         -1.1022   -1.6726   -2.2335 H         1 <0>         0.0982
     26 H7         -3.1088   -2.8762   -1.4129 H         1 <0>         0.1038
     27 H8         -4.0193   -1.3469   -1.3960 H         1 <0>         0.1019
     28 H9         -4.6324   -0.2678   -3.4028 H         1 <0>         0.1582
     29 H10        -4.3690   -2.5218   -7.0145 H         1 <0>         0.1366
     30 H11        -3.0233   -4.2094   -5.8455 H         1 <0>         0.1526
     31 H12        -5.6724    0.4765   -5.4223 H         1 <0>         0.3985
     32 H13        -5.5759   -0.4017   -6.8514 H         1 <0>         0.4010
@<TRIPOS>BOND
     1    1    6 ar
     2    1    2 ar
     3    1   20 1
     4    2    3 ar
     5    2   21 1
     6    3    4 ar
     7    3   19 1
     8    4    5 ar
     9    4   22 1
    10    5    6 ar
    11    5   23 1
    12    6    7 1
    13    7    8 2
    14    7    9 1
    15    9   10 1
    16    9   24 1
    17    9   25 1
    18   10   11 1
    19   10   26 1
    20   10   27 1
    21   11   16 am
    22   11   12 1
    23   12   13 2
    24   12   28 1
    25   13   14 1
    26   13   18 1
    27   14   15 2
    28   14   29 1
    29   15   16 1
    30   15   30 1
    31   16   17 2
    32   18   31 1
    33   18   32 1
@<TRIPOS>MOLECULE
ZINC49498019
   37    38     0     0     0
SMALL
USER_CHARGES

@<TRIPOS>ATOM
      1 C1         -0.2527    1.4933   -0.1000 C.3       1 <0>        -0.1777
      2 C2          0.0015   -0.0118    0.0047 C.3       1 <0>         0.0682
      3 H1         -0.9495   -0.5347    0.1061 H         1 <0>         0.1012
      4 C3          0.8607   -0.2935    1.2103 C.2       1 <0>         0.5257
      5 O1          1.9768   -0.7458    1.0672 O.2       1 <0>        -0.4930
      6 N1          0.3887   -0.0427    2.4476 N.am      1 <0>        -0.7145
      7 C4          1.2240   -0.3165    3.6196 C.3       1 <0>         0.1391
      8 H2          2.2663   -0.1089    3.3778 H         1 <0>         0.1224
      9 C5          0.7826    0.5800    4.7791 C.3       1 <0>        -0.1305
     10 C6          1.4721    0.0917    6.0588 C.3       1 <0>        -0.1353
     11 C7          0.9135   -1.2849    6.4214 C.3       1 <0>         0.1056
     12 N2          0.9647   -2.1758    5.2690 N.am      1 <0>        -0.7199
     13 C8          1.0800   -1.7599    4.0085 C.2       1 <0>         0.5003
     14 O2          1.0693   -2.5934    3.1275 O.2       1 <0>        -0.5303
     15 O3          0.6709   -0.4649   -1.1737 O.3       1 <0>        -0.2794
     16 C9         -0.1066   -0.7748   -2.2445 C.ar      1 <0>         0.1476
     17 C10         0.4645   -1.3310   -3.3798 C.ar      1 <0>        -0.1414
     18 C11        -0.3275   -1.6452   -4.4672 C.ar      1 <0>        -0.0483
     19 C12        -1.6893   -1.4055   -4.4245 C.ar      1 <0>        -0.1299
     20 C13        -2.2608   -0.8505   -3.2934 C.ar      1 <0>        -0.0481
     21 C14        -1.4733   -0.5405   -2.2016 C.ar      1 <0>        -0.2084
     22 Br1        -2.7711   -1.8366   -5.9144 Br        1 <0>        -0.0492
     23 H3          0.6983    2.0162   -0.2014 H         1 <0>         0.0784
     24 H4         -0.8741    1.6970   -0.9720 H         1 <0>         0.0792
     25 H5         -0.7633    1.8389    0.7988 H         1 <0>         0.0806
     26 H6         -0.5040    0.3191    2.5620 H         1 <0>         0.4043
     27 H7          1.0724    1.6110    4.5767 H         1 <0>         0.0885
     28 H8         -0.2991    0.5190    4.8990 H         1 <0>         0.0793
     29 H9          2.5464    0.0175    5.8899 H         1 <0>         0.0787
     30 H10         1.2747    0.7919    6.8706 H         1 <0>         0.0950
     31 H11         1.5036   -1.7109    7.2327 H         1 <0>         0.0815
     32 H12        -0.1206   -1.1791    6.7493 H         1 <0>         0.0691
     33 H13         0.9106   -3.1308    5.4300 H         1 <0>         0.4017
     34 H14         1.5277   -1.5180   -3.4137 H         1 <0>         0.1432
     35 H15         0.1168   -2.0779   -5.3513 H         1 <0>         0.1416
     36 H16        -3.3241   -0.6638   -3.2622 H         1 <0>         0.1366
     37 H17        -1.9205   -0.1120   -1.3169 H         1 <0>         0.1381
@<TRIPOS>BOND
     1    1    2 1
     2    1   23 1
     3    1   24 1
     4    1   25 1
     5    2    3 1
     6    2    4 1
     7    2   15 1
     8    4    5 2
     9    4    6 am
    10    6    7 1
    11    6   26 1
    12    7    8 1
    13    7   13 1
    14    7    9 1
    15    9   10 1
    16    9   27 1
    17    9   28 1
    18   10   11 1
    19   10   29 1
    20   10   30 1
    21   11   12 1
    22   11   31 1
    23   11   32 1
    24   12   13 am
    25   12   33 1
    26   13   14 2
    27   15   16 1
    28   16   21 ar
    29   16   17 ar
    30   17   18 ar
    31   17   34 1
    32   18   19 ar
    33   18   35 1
    34   19   20 ar
    35   19   22 1
    36   20   21 ar
    37   20   36 1
    38   21   37 1
@<TRIPOS>MOLECULE
ZINC15677249
   33    35     0     0     0
SMALL
USER_CHARGES

@<TRIPOS>ATOM
      1 C1         -0.0163    1.3513    0.0095 C.2       1 <0>        -0.1651
      2 C2          1.1833    2.0380    0.0017 C.2       1 <0>        -0.1313
      3 C3          2.3426    1.3358   -0.0131 C.2       1 <0>        -0.1711
      4 S1          1.7535   -0.3495   -0.0166 S.3       1 <0>         0.0596
      5 C4          0.0021   -0.0041    0.0020 C.2       1 <0>        -0.1619
      6 C5          3.7608    1.8454   -0.0244 C.3       1 <0>         0.2031
      7 N1          4.2338    2.0036    1.3531 N.pl3     1 <0>        -1.1134
      8 S2          5.8511    2.1877    1.6572 S.o2      1 <0>         2.6957
      9 O1          5.9850    2.3420    3.0635 O.2       1 <0>        -0.9481
     10 O2          6.5193    1.1614    0.9365 O.2       1 <0>        -0.9442
     11 C6          6.3467    3.7158    0.9335 C.ar      1 <0>        -0.6469
     12 C7          6.7920    3.7431   -0.3756 C.ar      1 <0>        -0.0281
     13 C8          7.1798    4.9411   -0.9473 C.ar      1 <0>        -0.0768
     14 C9          7.1221    6.1094   -0.2063 C.ar      1 <0>        -0.0823
     15 C10         6.6769    6.0892    1.1162 C.ar      1 <0>         0.1391
     16 C11         6.2824    4.8787    1.6755 C.ar      1 <0>        -0.0356
     17 N2          6.6194    7.2496    1.8835 N.am      1 <0>        -0.6561
     18 C12         6.5634    8.4962    1.4225 C.2       1 <0>         0.5234
     19 O3          6.5076    9.4027    2.2265 O.2       1 <0>        -0.5053
     20 C13         6.5659    8.8436   -0.0412 C.3       1 <0>        -0.1330
     21 S3          7.6092    7.6459   -0.9255 S.3       1 <0>        -0.0591
     22 H1         -0.9542    1.8866    0.0258 H         1 <0>         0.1363
     23 H2          1.1967    3.1179    0.0070 H         1 <0>         0.1353
     24 H3         -0.8275   -0.6955    0.0065 H         1 <0>         0.1881
     25 H4          4.3986    1.1333   -0.5480 H         1 <0>         0.0989
     26 H5          3.7967    2.8084   -0.5337 H         1 <0>         0.0909
     27 H6          3.5995    2.0004    2.0871 H         1 <0>         0.4243
     28 H7          6.8371    2.8300   -0.9505 H         1 <0>         0.1546
     29 H8          7.5274    4.9654   -1.9696 H         1 <0>         0.1511
     30 H9          5.9282    4.8473    2.6953 H         1 <0>         0.1521
     31 H10         6.6199    7.1383    2.8471 H         1 <0>         0.4186
     32 H11         5.5484    8.7979   -0.4294 H         1 <0>         0.1313
     33 H12         6.9665    9.8481   -0.1777 H         1 <0>         0.1559
@<TRIPOS>BOND
     1    1    5 2
     2    1    2 1
     3    1   22 1
     4    2    3 2
     5    2   23 1
     6    3    4 1
     7    3    6 1
     8    4    5 1
     9    5   24 1
    10    6    7 1
    11    6   25 1
    12    6   26 1
    13    7    8 1
    14    7   27 1
    15    8    9 2
    16    8   10 2
    17    8   11 1
    18   11   16 ar
    19   11   12 ar
    20   12   13 ar
    21   12   28 1
    22   13   14 ar
    23   13   29 1
    24   14   21 1
    25   14   15 ar
    26   15   16 ar
    27   15   17 1
    28   16   30 1
    29   17   18 am
    30   17   31 1
    31   18   19 2
    32   18   20 1
    33   20   21 1
    34   20   32 1
    35   20   33 1
@<TRIPOS>MOLECULE
ZINC20937941
   37    39     0     0     0
SMALL
USER_CHARGES

@<TRIPOS>ATOM
      1 C1         -0.1802    1.9803   -0.4956 C.3       1 <0>        -0.1218
      2 S1         -0.0738    0.1735   -0.6169 S.3       1 <0>        -0.2483
      3 C2         -1.7638   -0.3896   -0.2744 C.3       1 <0>        -0.0930
      4 C3         -1.8167   -1.9170   -0.3454 C.3       1 <0>        -0.1023
      5 C4         -3.2421   -2.3920   -0.0566 C.3       1 <0>         0.0826
      6 H1         -3.5943   -1.9891    0.8930 H         1 <0>         0.1490
      7 C5         -3.3088   -3.9063   -0.0509 C.2       1 <0>         0.5187
      8 O1         -2.7198   -4.6626    0.6916 O.2       1 <0>        -0.4258
      9 N1         -4.1596   -4.2373   -1.0423 N.am      1 <0>        -0.4935
     10 C6         -4.6347   -3.1538   -1.6671 C.2       1 <0>         0.5360
     11 S2         -5.7388   -3.2164   -2.9740 S.2       1 <0>        -0.5144
     12 N2         -4.1488   -2.0061   -1.1516 N.pl3     1 <0>        -0.6568
     13 C7         -4.5040   -5.5556   -1.3785 C.ar      1 <0>         0.1518
     14 C8         -4.0923   -6.0892   -2.5924 C.ar      1 <0>        -0.0814
     15 C9         -4.4293   -7.3885   -2.9225 C.ar      1 <0>        -0.0440
     16 C10        -5.1771   -8.1537   -2.0433 C.ar      1 <0>        -0.1156
     17 C11        -5.5987   -7.6256   -0.8220 C.ar      1 <0>         0.1713
     18 C12        -5.2488   -6.3208   -0.4944 C.ar      1 <0>        -0.1130
     19 N3         -6.3598   -8.3745    0.0716 N.am      1 <0>        -0.6545
     20 C13        -6.4382   -9.7016    0.1195 C.2       1 <0>         0.5257
     21 O2         -7.1420  -10.2039    0.9702 O.2       1 <0>        -0.5078
     22 C14        -5.7024  -10.6136   -0.8238 C.3       1 <0>        -0.1329
     23 S3         -5.6075   -9.8155   -2.4547 S.3       1 <0>        -0.0618
     24 H2          0.8003    2.4158   -0.6884 H         1 <0>         0.1065
     25 H3         -0.8939    2.3524   -1.2307 H         1 <0>         0.0792
     26 H4         -0.5109    2.2585    0.5051 H         1 <0>         0.0792
     27 H5         -2.0612   -0.0616    0.7216 H         1 <0>         0.0914
     28 H6         -2.4442    0.0323   -1.0141 H         1 <0>         0.0840
     29 H7         -1.5192   -2.2450   -1.3414 H         1 <0>         0.0920
     30 H8         -1.1362   -2.3389    0.3943 H         1 <0>         0.1093
     31 H9         -4.3546   -1.1041   -1.4430 H         1 <0>         0.4561
     32 H10        -3.5103   -5.4904   -3.2772 H         1 <0>         0.1430
     33 H11        -4.1094   -7.8068   -3.8654 H         1 <0>         0.1526
     34 H12        -5.5616   -5.9005    0.4500 H         1 <0>         0.1376
     35 H13        -6.8830   -7.8809    0.7223 H         1 <0>         0.4162
     36 H14        -4.6959  -10.7944   -0.4466 H         1 <0>         0.1302
     37 H15        -6.2379  -11.5590   -0.9103 H         1 <0>         0.1545
@<TRIPOS>BOND
     1    1    2 1
     2    1   24 1
     3    1   25 1
     4    1   26 1
     5    2    3 1
     6    3    4 1
     7    3   27 1
     8    3   28 1
     9    4    5 1
    10    4   29 1
    11    4   30 1
    12    5    6 1
    13    5   12 1
    14    5    7 1
    15    7    8 2
    16    7    9 am
    17    9   10 1
    18    9   13 1
    19   10   11 2
    20   10   12 1
    21   12   31 1
    22   13   18 ar
    23   13   14 ar
    24   14   15 ar
    25   14   32 1
    26   15   16 ar
    27   15   33 1
    28   16   23 1
    29   16   17 ar
    30   17   18 ar
    31   17   19 1
    32   18   34 1
    33   19   20 am
    34   19   35 1
    35   20   21 2
    36   20   22 1
    37   22   23 1
    38   22   36 1
    39   22   37 1
@<TRIPOS>MOLECULE
ZINC11566089
   34    35     0     0     0
SMALL
USER_CHARGES
1-[4-(2,5-dibromophenyl)sulfonylpiperazin-1-yl]ethanone
@<TRIPOS>ATOM
      1 C1         -1.0007    4.3843   -6.0831 C.3       1 <0>        -0.1809
      2 C2         -1.7257    4.2990   -4.7647 C.2       1 <0>         0.5149
      3 O1         -2.9064    4.5696   -4.7033 O.2       1 <0>        -0.5427
      4 N1         -1.0621    3.9220   -3.6539 N.am      1 <0>        -0.6139
      5 C3         -1.7794    3.7153   -2.3879 C.3       1 <0>         0.0997
      6 C4         -1.1315    4.5917   -1.3088 C.3       1 <0>         0.1048
      7 N2          0.3224    4.3794   -1.3419 N.pl3     1 <0>        -0.9894
      8 C5          1.0405    4.5915   -2.6065 C.3       1 <0>         0.0953
      9 C6          0.3918    3.7097   -3.6870 C.3       1 <0>         0.0886
     10 S1          1.1378    3.9163    0.0229 S.o2      1 <0>         2.6815
     11 O2          2.4088    3.4452   -0.4035 O.2       1 <0>        -0.9278
     12 O3          0.2418    3.1127    0.7783 O.2       1 <0>        -0.9411
     13 C7          1.4325    5.3709    0.9726 C.ar      1 <0>        -0.6539
     14 C8          0.8036    5.5394    2.1919 C.ar      1 <0>         0.0126
     15 C9          1.0341    6.6817    2.9369 C.ar      1 <0>        -0.1009
     16 C10         1.8947    7.6553    2.4620 C.ar      1 <0>        -0.0294
     17 C11         2.5238    7.4866    1.2433 C.ar      1 <0>        -0.1011
     18 C12         2.2928    6.3442    0.4978 C.ar      1 <0>         0.0085
     19 Br1         3.1472    6.1172   -1.1738 Br        1 <0>        -0.0082
     20 Br2         0.1737    6.9123    4.6049 Br        1 <0>        -0.0193
     21 H1          0.0587    4.1792   -5.9291 H         1 <0>         0.0832
     22 H2         -1.4161    3.6509   -6.7743 H         1 <0>         0.0979
     23 H3         -1.1204    5.3845   -6.4995 H         1 <0>         0.0962
     24 H4         -1.7128    2.6671   -2.0966 H         1 <0>         0.0787
     25 H5         -2.8258    3.9960   -2.5075 H         1 <0>         0.1085
     26 H6         -1.5197    4.3127   -0.3293 H         1 <0>         0.1035
     27 H7         -1.3525    5.6409   -1.5047 H         1 <0>         0.0796
     28 H8          0.9704    5.6401   -2.8956 H         1 <0>         0.0818
     29 H9          2.0871    4.3124   -2.4842 H         1 <0>         0.1128
     30 H10         0.6130    2.6611   -3.4881 H         1 <0>         0.0813
     31 H11         0.7796    3.9858   -4.6676 H         1 <0>         0.1081
     32 H12         0.1318    4.7794    2.5626 H         1 <0>         0.1628
     33 H13         2.0745    8.5474    3.0436 H         1 <0>         0.1538
     34 H14         3.1955    8.2467    0.8726 H         1 <0>         0.1546
@<TRIPOS>BOND
     1    1    2 1
     2    1   21 1
     3    1   22 1
     4    1   23 1
     5    2    3 2
     6    2    4 am
     7    4    9 1
     8    4    5 1
     9    5    6 1
    10    5   24 1
    11    5   25 1
    12    6    7 1
    13    6   26 1
    14    6   27 1
    15    7    8 1
    16    7   10 1
    17    8    9 1
    18    8   28 1
    19    8   29 1
    20    9   30 1
    21    9   31 1
    22   10   11 2
    23   10   12 2
    24   10   13 1
    25   13   18 ar
    26   13   14 ar
    27   14   15 ar
    28   14   32 1
    29   15   16 ar
    30   15   20 1
    31   16   17 ar
    32   16   33 1
    33   17   18 ar
    34   17   34 1
    35   18   19 1
@<TRIPOS>MOLECULE
ZINC23102077
   43    45     0     0     0
SMALL
USER_CHARGES
N-[(1S)-1-(4-chlorophenyl)ethyl]-N-methyl-2,2-dioxo-3,4-dihydropyrido[6,1-c][1,2,4]thiadiazine-7-carboxamide
@<TRIPOS>ATOM
      1 C1         -3.1870    0.8883   -1.4076 C.3       1 <0>        -0.1633
      2 C2         -2.5445    0.9024   -0.0191 C.3       1 <0>         0.1757
      3 H1         -2.3483   -0.1201    0.3359 H         1 <0>         0.1199
      4 C3         -1.2554    1.6813   -0.0700 C.ar      1 <0>        -0.0944
      5 C4         -0.5220    1.7277   -1.2409 C.ar      1 <0>        -0.0992
      6 C5          0.6575    2.4466   -1.2898 C.ar      1 <0>        -0.1077
      7 C6          1.1068    3.1155   -0.1651 C.ar      1 <0>        -0.0336
      8 C7          0.3750    3.0643    1.0079 C.ar      1 <0>        -0.1082
      9 C8         -0.8044    2.3451    1.0556 C.ar      1 <0>        -0.0915
     10 Cl1         2.5884    4.0182   -0.2256 Cl        1 <0>        -0.0670
     11 N1         -3.4590    1.5335    0.9357 N.am      1 <0>        -0.6019
     12 C9         -3.9830    2.8757    0.6707 C.3       1 <0>         0.0649
     13 C10        -3.8183    0.8793    2.0580 C.2       1 <0>         0.5772
     14 O1         -3.3049   -0.1894    2.3297 O.2       1 <0>        -0.5152
     15 C11        -4.8324    1.4584    2.9553 C.2       1 <0>        -0.1999
     16 C12        -6.1700    1.3152    2.6813 C.2       1 <0>         0.1491
     17 N2         -7.1254    1.8380    3.4958 N.pl3     1 <0>        -0.5050
     18 C13        -8.5091    1.6519    3.0469 C.3       1 <0>         0.0919
     19 C14        -9.4357    1.4088    4.2415 C.3       1 <0>        -0.6849
     20 S1         -9.2568    2.8407    5.3523 S.o2      1 <0>         2.5526
     21 O2         -9.7446    2.5259    6.6493 O.2       1 <0>        -0.9371
     22 O3         -9.6559    4.0342    4.6923 O.2       1 <0>        -0.9590
     23 N3         -7.6175    2.9738    5.5292 N.2       1 <0>        -0.9597
     24 C15        -6.7746    2.4947    4.6428 C.2       1 <0>         0.5148
     25 C16        -5.3954    2.6951    4.9556 C.2       1 <0>        -0.1472
     26 C17        -4.4306    2.2017    4.1512 C.2       1 <0>        -0.0027
     27 H2         -4.1279    0.3198   -1.3704 H         1 <0>         0.0667
     28 H3         -2.5003    0.4145   -2.1245 H         1 <0>         0.0782
     29 H4         -3.3946    1.9205   -1.7260 H         1 <0>         0.0677
     30 H5         -0.8729    1.2058   -2.1188 H         1 <0>         0.1372
     31 H6          1.2281    2.4864   -2.2058 H         1 <0>         0.1356
     32 H7          0.7253    3.5860    1.8863 H         1 <0>         0.1344
     33 H8         -1.3759    2.3054    1.9711 H         1 <0>         0.1272
     34 H9         -4.6475    3.1789    1.4932 H         1 <0>         0.0813
     35 H10        -4.5475    2.8691   -0.2734 H         1 <0>         0.0696
     36 H11        -3.1474    3.5868    0.5933 H         1 <0>         0.0709
     37 H12        -6.4919    0.7663    1.7840 H         1 <0>         0.1810
     38 H13        -8.8456    2.5527    2.5127 H         1 <0>         0.1164
     39 H14        -8.5623    0.7844    2.3726 H         1 <0>         0.1277
     40 H15       -10.4734    1.3178    3.8881 H         1 <0>         0.1580
     41 H16        -9.1396    0.4807    4.7523 H         1 <0>         0.1434
     42 H17        -5.1225    3.2571    5.8610 H         1 <0>         0.1765
     43 H18        -3.3713    2.3619    4.4007 H         1 <0>         0.1594
@<TRIPOS>BOND
     1    1    2 1
     2    1   27 1
     3    1   28 1
     4    1   29 1
     5    2    3 1
     6    2    4 1
     7    2   11 1
     8    4    9 ar
     9    4    5 ar
    10    5    6 ar
    11    5   30 1
    12    6    7 ar
    13    6   31 1
    14    7    8 ar
    15    7   10 1
    16    8    9 ar
    17    8   32 1
    18    9   33 1
    19   11   12 1
    20   11   13 am
    21   12   34 1
    22   12   35 1
    23   12   36 1
    24   13   14 2
    25   13   15 1
    26   15   26 1
    27   15   16 2
    28   16   17 1
    29   16   37 1
    30   17   24 1
    31   17   18 1
    32   18   19 1
    33   18   38 1
    34   18   39 1
    35   19   20 1
    36   19   40 1
    37   19   41 1
    38   20   21 2
    39   20   22 2
    40   20   23 1
    41   23   24 2
    42   24   25 1
    43   25   26 2
    44   25   42 1
    45   26   43 1
@<TRIPOS>MOLECULE
ZINC39404872
   50    53     0     0     0
SMALL
USER_CHARGES

@<TRIPOS>ATOM
      1 C1         -0.0184    1.5028    0.0103 C.3       1 <0>        -0.0899
      2 C2          0.0021   -0.0041    0.0020 C.2       1 <0>        -0.0226
      3 C3         -1.0863   -0.7768    0.0030 C.2       1 <0>        -0.1598
      4 C4         -0.5311   -2.1901   -0.0073 C.3       1 <0>        -0.0604
      5 H1         -0.8370   -2.7309    0.8883 H         1 <0>         0.1689
      6 N1          0.9257   -1.9734   -0.0130 N.2       1 <0>        -0.1158
      7 N2          1.1248   -0.7562   -0.0132 N.2       1 <0>        -0.1567
      8 C5         -0.9692   -2.9257   -1.2475 C.2       1 <0>         0.5739
      9 O1         -0.2108   -3.0347   -2.1876 O.2       1 <0>        -0.5096
     10 N3         -2.2038   -3.4626   -1.3118 N.am      1 <0>        -0.6060
     11 C6         -3.2251   -3.3997   -0.2498 C.3       1 <0>         0.0936
     12 C7         -4.5776   -3.5741   -0.9868 C.3       1 <0>        -0.1099
     13 C8         -4.2002   -4.5902   -2.0888 C.3       1 <0>        -0.0855
     14 C9         -2.7587   -4.2034   -2.4560 C.3       1 <0>         0.1372
     15 C10        -5.1190   -4.4192   -3.2927 C.3       1 <0>        -0.1120
     16 C11        -6.4876   -5.0218   -2.9478 C.3       1 <0>        -0.1342
     17 C12        -6.3309   -6.5330   -2.7776 C.3       1 <0>         0.1101
     18 N4         -5.2440   -6.8398   -1.8564 N.am      1 <0>        -0.6005
     19 C13        -4.2626   -5.9850   -1.5531 C.2       1 <0>         0.5210
     20 O2         -3.3811   -6.3580   -0.8083 O.2       1 <0>        -0.5094
     21 C14        -5.2265   -8.1621   -1.2260 C.3       1 <0>         0.1520
     22 C15        -4.4477   -9.1203   -2.0899 C.ar      1 <0>        -0.1235
     23 C16        -5.1150   -9.9949   -2.9273 C.ar      1 <0>        -0.0890
     24 C17        -4.4021  -10.8740   -3.7206 C.ar      1 <0>        -0.1058
     25 C18        -3.0202  -10.8809   -3.6781 C.ar      1 <0>        -0.1208
     26 C19        -2.3494  -10.0069   -2.8411 C.ar      1 <0>         0.0595
     27 C20        -3.0646   -9.1208   -2.0492 C.ar      1 <0>         0.0886
     28 F1         -2.4117   -8.2626   -1.2353 F         1 <0>        -0.0983
     29 F2         -0.9991  -10.0133   -2.7986 F         1 <0>        -0.1270
     30 H2          1.0042    1.8801    0.0026 H         1 <0>         0.0826
     31 H3         -0.5455    1.8639   -0.8728 H         1 <0>         0.0806
     32 H4         -0.5286    1.8543    0.9071 H         1 <0>         0.0816
     33 H5         -2.1213   -0.4684    0.0099 H         1 <0>         0.1766
     34 H6         -3.0770   -4.2074    0.4670 H         1 <0>         0.0852
     35 H7         -3.1895   -2.4336    0.2537 H         1 <0>         0.0801
     36 H8         -5.3361   -3.9843   -0.3201 H         1 <0>         0.0907
     37 H9         -4.9102   -2.6315   -1.4216 H         1 <0>         0.0935
     38 H10        -2.7569   -3.5709   -3.3438 H         1 <0>         0.0817
     39 H11        -2.1698   -5.1026   -2.6368 H         1 <0>         0.0780
     40 H12        -5.2317   -3.3593   -3.5208 H         1 <0>         0.0844
     41 H13        -4.6964   -4.9374   -4.1535 H         1 <0>         0.0767
     42 H14        -6.8553   -4.5857   -2.0190 H         1 <0>         0.0762
     43 H15        -7.1912   -4.8159   -3.7543 H         1 <0>         0.0912
     44 H16        -7.2600   -6.9482   -2.3872 H         1 <0>         0.0806
     45 H17        -6.1173   -6.9829   -3.7472 H         1 <0>         0.0674
     46 H18        -4.7550   -8.0911   -0.2458 H         1 <0>         0.1013
     47 H19        -6.2484   -8.5239   -1.1122 H         1 <0>         0.0969
     48 H20        -6.1944   -9.9914   -2.9613 H         1 <0>         0.1390
     49 H21        -4.9251  -11.5565   -4.3741 H         1 <0>         0.1416
     50 H22        -2.4643  -11.5688   -4.2979 H         1 <0>         0.1458
@<TRIPOS>BOND
     1    1    2 1
     2    1   30 1
     3    1   31 1
     4    1   32 1
     5    2    7 1
     6    2    3 2
     7    3    4 1
     8    3   33 1
     9    4    5 1
    10    4    6 1
    11    4    8 1
    12    6    7 2
    13    8    9 2
    14    8   10 am
    15   10   14 1
    16   10   11 1
    17   11   12 1
    18   11   34 1
    19   11   35 1
    20   12   13 1
    21   12   36 1
    22   12   37 1
    23   13   19 1
    24   13   14 1
    25   13   15 1
    26   14   38 1
    27   14   39 1
    28   15   16 1
    29   15   40 1
    30   15   41 1
    31   16   17 1
    32   16   42 1
    33   16   43 1
    34   17   18 1
    35   17   44 1
    36   17   45 1
    37   18   19 am
    38   18   21 1
    39   19   20 2
    40   21   22 1
    41   21   46 1
    42   21   47 1
    43   22   27 ar
    44   22   23 ar
    45   23   24 ar
    46   23   48 1
    47   24   25 ar
    48   24   49 1
    49   25   26 ar
    50   25   50 1
    51   26   27 ar
    52   26   29 1
    53   27   28 1
@<TRIPOS>MOLECULE
ZINC57812497
   42    45     0     0     0
SMALL
USER_CHARGES

@<TRIPOS>ATOM
      1 C1         -1.1766    1.5474   -0.4396 C.3       1 <0>        -0.0966
      2 C2         -0.7156    2.0018   -1.8005 C.2       1 <0>         0.1773
      3 C3         -0.1215    1.1275   -2.7018 C.2       1 <0>        -0.3265
      4 S1          0.1857    2.2280   -4.0743 S.3       1 <0>         0.1329
      5 C4         -0.4455    3.6318   -3.3937 C.2       1 <0>         0.1618
      6 N1         -0.8580    3.2387   -2.1985 N.2       1 <0>        -0.5312
      7 C5         -0.5257    4.9789   -3.9895 C.2       1 <0>        -0.0880
      8 C6         -1.0965    6.0874   -3.2656 C.2       1 <0>        -0.1066
      9 C7         -1.1110    7.2674   -3.9215 C.2       1 <0>        -0.2117
     10 S2         -0.3624    6.8618   -5.4847 S.3       1 <0>         0.1965
     11 C8         -0.0576    5.2291   -5.2466 C.2       1 <0>        -0.1779
     12 C9          0.1721   -0.3001   -2.5644 C.2       1 <0>         0.6236
     13 O1          0.6641   -0.7239   -1.5348 O.2       1 <0>        -0.4972
     14 N2         -0.1024   -1.1452   -3.5778 N.am      1 <0>        -0.5696
     15 C10        -0.3681   -0.6189   -4.9189 C.3       1 <0>         0.1455
     16 H1         -0.6880   -1.4282   -5.5752 H         1 <0>         0.1272
     17 C11         0.9050    0.0342   -5.4821 C.3       1 <0>        -0.1446
     18 C12         0.5590    0.8651   -6.7412 C.3       1 <0>        -0.5756
     19 S3         -1.1873    1.3541   -6.4352 S.o2      1 <0>         2.3690
     20 O2         -1.2409    2.7545   -6.2001 O.2       1 <0>        -0.9191
     21 O3         -2.0108    0.7822   -7.4422 O.2       1 <0>        -0.9264
     22 C13        -1.4781    0.4684   -4.8462 C.3       1 <0>        -0.6424
     23 C14        -0.1351   -2.5901   -3.3382 C.3       1 <0>         0.0643
     24 C15        -0.2074   -3.0638   -1.8852 C.3       1 <0>        -0.1837
     25 C16         1.0909   -3.2247   -2.6786 C.3       1 <0>        -0.1808
     26 H2         -2.2101    1.2066   -0.5012 H         1 <0>         0.0832
     27 H3         -0.5439    0.7289   -0.0963 H         1 <0>         0.0927
     28 H4         -1.1091    2.3781    0.2629 H         1 <0>         0.0848
     29 H5         -1.4871    5.9808   -2.2644 H         1 <0>         0.1510
     30 H6         -1.4850    8.2219   -3.5817 H         1 <0>         0.1922
     31 H7          0.4030    4.5340   -5.9329 H         1 <0>         0.1925
     32 H8          1.3415    0.6871   -4.7264 H         1 <0>         0.0885
     33 H9          1.6231   -0.7420   -5.7468 H         1 <0>         0.1168
     34 H10         1.1997    1.7441   -6.8123 H         1 <0>         0.1486
     35 H11         0.6375    0.2546   -7.6408 H         1 <0>         0.1501
     36 H12        -2.4703    0.0177   -4.8222 H         1 <0>         0.1537
     37 H13        -1.3270    1.1295   -3.9928 H         1 <0>         0.1614
     38 H14        -0.6652   -3.1789   -4.0868 H         1 <0>         0.1376
     39 H15        -0.2306   -2.3004   -1.1075 H         1 <0>         0.1265
     40 H16        -0.7853   -3.9644   -1.6776 H         1 <0>         0.0985
     41 H17         1.3671   -4.2312   -2.9930 H         1 <0>         0.1003
     42 H18         1.9218   -2.5672   -2.4229 H         1 <0>         0.1015
@<TRIPOS>BOND
     1    1    2 1
     2    1   26 1
     3    1   27 1
     4    1   28 1
     5    2    6 1
     6    2    3 2
     7    3    4 1
     8    3   12 1
     9    4    5 1
    10    5    6 2
    11    5    7 1
    12    7   11 2
    13    7    8 1
    14    8    9 2
    15    8   29 1
    16    9   10 1
    17    9   30 1
    18   10   11 1
    19   11   31 1
    20   12   13 2
    21   12   14 am
    22   14   15 1
    23   14   23 1
    24   15   16 1
    25   15   22 1
    26   15   17 1
    27   17   18 1
    28   17   32 1
    29   17   33 1
    30   18   19 1
    31   18   34 1
    32   18   35 1
    33   19   20 2
    34   19   21 2
    35   19   22 1
    36   22   36 1
    37   22   37 1
    38   23   25 1
    39   23   24 1
    40   23   38 1
    41   24   25 1
    42   24   39 1
    43   24   40 1
    44   25   41 1
    45   25   42 1
@<TRIPOS>MOLECULE
ZINC64473496
   43    46     0     0     0
SMALL
USER_CHARGES

@<TRIPOS>ATOM
      1 C1          0.8940    2.1861   -3.0160 C.2       1 <0>         0.0793
      2 C2          2.1345    2.6131   -2.6788 C.2       1 <0>        -0.2741
      3 S1          2.7921    1.1465   -1.9014 S.3       1 <0>         0.0718
      4 C3          1.4409    0.1599   -2.0842 C.2       1 <0>         0.3132
      5 N1          0.5799    0.9421   -2.6996 N.2       1 <0>        -0.5926
      6 N2          1.2752   -1.1567   -1.6838 N.pl3     1 <0>        -0.5615
      7 C4         -0.0096   -1.8156   -1.9631 C.3       1 <0>         0.1296
      8 C5          0.1634   -3.2461   -2.4804 C.3       1 <0>        -0.1593
      9 C6          1.3119   -3.3150   -3.4665 C.3       1 <0>         0.1124
     10 N3          2.5462   -3.5240   -2.7097 N.am      1 <0>        -0.5943
     11 C7          3.2869   -2.4898   -2.0755 C.3       1 <0>         0.0860
     12 C8          2.3811   -1.8189   -1.0144 C.3       1 <0>         0.1079
     13 C9          3.0131   -4.7840   -2.6064 C.2       1 <0>         0.5610
     14 O1          4.0755   -4.9953   -2.0542 O.2       1 <0>        -0.5189
     15 C10         2.2346   -5.9076   -3.1636 C.ar      1 <0>        -0.1136
     16 C11         0.9127   -6.1118   -2.7607 C.ar      1 <0>        -0.0874
     17 C12         0.1852   -7.1643   -3.2851 C.ar      1 <0>         0.0617
     18 C13         0.7705   -8.0190   -4.2158 C.ar      1 <0>         0.0809
     19 C14         2.0870   -7.8166   -4.6154 C.ar      1 <0>        -0.0359
     20 C15         2.8157   -6.7662   -4.0995 C.ar      1 <0>        -0.0600
     21 Cl1         2.8135   -8.8869   -5.7732 Cl        1 <0>        -0.0369
     22 O2          0.0666   -9.0542   -4.7470 O.3       1 <0>        -0.2905
     23 C16        -1.1190   -9.4519   -4.0502 C.3       1 <0>         0.0174
     24 C17        -1.9194   -8.1892   -3.7036 C.3       1 <0>         0.0188
     25 O3         -1.1008   -7.3522   -2.8796 O.3       1 <0>        -0.2984
     26 H1          0.1911    2.8351   -3.5171 H         1 <0>         0.1694
     27 H2          2.5982    3.5755   -2.8370 H         1 <0>         0.1917
     28 H3         -0.5991   -1.8412   -1.0466 H         1 <0>         0.0667
     29 H4         -0.5490   -1.2336   -2.7104 H         1 <0>         0.0959
     30 H5          0.3683   -3.9108   -1.6411 H         1 <0>         0.0774
     31 H6         -0.7549   -3.5649   -2.9735 H         1 <0>         0.0968
     32 H7          1.1569   -4.1455   -4.1551 H         1 <0>         0.0922
     33 H8          1.3753   -2.3804   -4.0239 H         1 <0>         0.0847
     34 H9          4.1675   -2.9132   -1.5924 H         1 <0>         0.1182
     35 H10         3.5917   -1.7504   -2.8162 H         1 <0>         0.0741
     36 H11         2.9623   -1.0851   -0.4560 H         1 <0>         0.0910
     37 H12         1.9947   -2.5770   -0.3332 H         1 <0>         0.0953
     38 H13         0.4591   -5.4480   -2.0395 H         1 <0>         0.1533
     39 H14         3.8363   -6.6095   -4.4160 H         1 <0>         0.1505
     40 H15        -1.7179  -10.1037   -4.6862 H         1 <0>         0.1299
     41 H16        -0.8483   -9.9782   -3.1349 H         1 <0>         0.0839
     42 H17        -2.1838   -7.6588   -4.6185 H         1 <0>         0.0834
     43 H18        -2.8249   -8.4647   -3.1630 H         1 <0>         0.1291
@<TRIPOS>BOND
     1    1    5 1
     2    1    2 2
     3    1   26 1
     4    2    3 1
     5    2   27 1
     6    3    4 1
     7    4    5 2
     8    4    6 1
     9    6   12 1
    10    6    7 1
    11    7    8 1
    12    7   28 1
    13    7   29 1
    14    8    9 1
    15    8   30 1
    16    8   31 1
    17    9   10 1
    18    9   32 1
    19    9   33 1
    20   10   11 1
    21   10   13 am
    22   11   12 1
    23   11   34 1
    24   11   35 1
    25   12   36 1
    26   12   37 1
    27   13   14 2
    28   13   15 1
    29   15   20 ar
    30   15   16 ar
    31   16   17 ar
    32   16   38 1
    33   17   25 1
    34   17   18 ar
    35   18   19 ar
    36   18   22 1
    37   19   20 ar
    38   19   21 1
    39   20   39 1
    40   22   23 1
    41   23   24 1
    42   23   40 1
    43   23   41 1
    44   24   25 1
    45   24   42 1
    46   24   43 1
@<TRIPOS>MOLECULE
ZINC02657001
   46    49     0     0     0
SMALL
USER_CHARGES
(4-phenylsulfonylpiperazin-1-yl)-(2-quinolyl)methanone
@<TRIPOS>ATOM
      1 C1          0.4600    2.8203   -1.1247 C.ar      1 <0>        -0.0626
      2 C2          1.4704    1.8834   -1.0142 C.ar      1 <0>        -0.1388
      3 C3          1.1720    0.5854   -0.6443 C.ar      1 <0>        -0.0208
      4 C4         -0.1369    0.2240   -0.3854 C.ar      1 <0>        -0.6773
      5 C5         -1.1481    1.1594   -0.5015 C.ar      1 <0>        -0.0214
      6 C6         -0.8490    2.4588   -0.8662 C.ar      1 <0>        -0.1388
      7 S1         -0.5174   -1.4308    0.0855 S.o2      1 <0>         2.6889
      8 O1         -1.8789   -1.6481   -0.2585 O.2       1 <0>        -0.9517
      9 O2          0.5339   -2.2467   -0.4128 O.2       1 <0>        -0.9516
     10 N1         -0.4294   -1.5022    1.7376 N.pl3     1 <0>        -0.9979
     11 C7          0.8343   -1.8445    2.4053 C.3       1 <0>         0.1025
     12 C8          1.1764   -0.7233    3.4011 C.3       1 <0>         0.0621
     13 N2         -0.0094   -0.4515    4.2257 N.am      1 <0>        -0.5879
     14 C9         -1.2744   -0.1147    3.5579 C.3       1 <0>         0.0943
     15 C10        -1.6152   -1.2304    2.5622 C.3       1 <0>         0.1064
     16 C11         0.0620   -0.5105    5.5703 C.2       1 <0>         0.5726
     17 O3         -0.9307   -0.3074    6.2408 O.2       1 <0>        -0.5254
     18 C12         1.3519   -0.8232    6.2313 C.ar      1 <0>         0.1188
     19 C13         1.3460   -1.3398    7.5355 C.ar      1 <0>        -0.1266
     20 C14         2.5265   -1.6377    8.1528 C.ar      1 <0>        -0.0538
     21 C15         3.7235   -1.4002    7.4513 C.ar      1 <0>        -0.0853
     22 C16         4.9737   -1.6764    8.0281 C.ar      1 <0>        -0.0994
     23 C17         6.1105   -1.4342    7.3194 C.ar      1 <0>        -0.1046
     24 C18         6.0519   -0.9142    6.0269 C.ar      1 <0>        -0.0976
     25 C19         4.8595   -0.6337    5.4364 C.ar      1 <0>        -0.0893
     26 C20         3.6606   -0.8705    6.1362 C.ar      1 <0>         0.1189
     27 N3          2.4784   -0.6044    5.5815 N.ar      1 <0>        -0.4381
     28 H1          0.6932    3.8345   -1.4133 H         1 <0>         0.1317
     29 H2          2.4931    2.1658   -1.2164 H         1 <0>         0.1338
     30 H3          1.9614   -0.1466   -0.5580 H         1 <0>         0.1392
     31 H4         -2.1712    0.8760   -0.3036 H         1 <0>         0.1394
     32 H5         -1.6385    3.1906   -0.9529 H         1 <0>         0.1338
     33 H6          0.7225   -2.7889    2.9378 H         1 <0>         0.0801
     34 H7          1.6280   -1.9317    1.6634 H         1 <0>         0.1039
     35 H8          1.4585    0.1785    2.8576 H         1 <0>         0.0754
     36 H9          2.0015   -1.0388    4.0396 H         1 <0>         0.1508
     37 H10        -1.1668    0.8304    3.0255 H         1 <0>         0.0770
     38 H11        -2.0702   -0.0291    4.2978 H         1 <0>         0.1089
     39 H12        -2.4394   -0.9119    1.9240 H         1 <0>         0.1055
     40 H13        -1.8992   -2.1329    3.1034 H         1 <0>         0.0842
     41 H14         0.4099   -1.5059    8.0479 H         1 <0>         0.1507
     42 H15         2.5418   -2.0401    9.1549 H         1 <0>         0.1490
     43 H16         5.0330   -2.0793    9.0283 H         1 <0>         0.1348
     44 H17         7.0711   -1.6476    7.7645 H         1 <0>         0.1319
     45 H18         6.9686   -0.7308    5.4862 H         1 <0>         0.1345
     46 H19         4.8320   -0.2306    4.4348 H         1 <0>         0.1396
@<TRIPOS>BOND
     1    1    6 ar
     2    1    2 ar
     3    1   28 1
     4    2    3 ar
     5    2   29 1
     6    3    4 ar
     7    3   30 1
     8    4    5 ar
     9    4    7 1
    10    5    6 ar
    11    5   31 1
    12    6   32 1
    13    7    8 2
    14    7    9 2
    15    7   10 1
    16   10   15 1
    17   10   11 1
    18   11   12 1
    19   11   33 1
    20   11   34 1
    21   12   13 1
    22   12   35 1
    23   12   36 1
    24   13   14 1
    25   13   16 am
    26   14   15 1
    27   14   37 1
    28   14   38 1
    29   15   39 1
    30   15   40 1
    31   16   17 2
    32   16   18 1
    33   18   27 ar
    34   18   19 ar
    35   19   20 ar
    36   19   41 1
    37   20   21 ar
    38   20   42 1
    39   21   26 ar
    40   21   22 ar
    41   22   23 ar
    42   22   43 1
    43   23   24 ar
    44   23   44 1
    45   24   25 ar
    46   24   45 1
    47   25   26 ar
    48   25   46 1
    49   26   27 ar
@<TRIPOS>MOLECULE
ZINC29246825
   45    48     0     0     0
SMALL
USER_CHARGES
(4-bromophenyl)-[(2R)-2-(6,7,8,9-tetrahydro-5H-[1,2,4]triazolo[4,3-a]azepin-3-yl)pyrrolidin-1-yl]methanone
@<TRIPOS>ATOM
      1 C1          5.6308   -2.7311    5.7802 C.ar      1 <0>        -0.0934
      2 C2          6.5327   -2.8409    6.8178 C.ar      1 <0>        -0.0967
      3 C3          6.7136   -1.7858    7.6962 C.ar      1 <0>        -0.0685
      4 C4          5.9959   -0.6125    7.5352 C.ar      1 <0>        -0.0969
      5 C5          5.0956   -0.4884    6.4979 C.ar      1 <0>        -0.0559
      6 C6          4.9085   -1.5487    5.6092 C.ar      1 <0>        -0.1132
      7 C7          3.9453   -1.4221    4.4954 C.2       1 <0>         0.5800
      8 O1          3.6875   -0.3264    4.0364 O.2       1 <0>        -0.5251
      9 N1          3.3528   -2.5215    3.9887 N.am      1 <0>        -0.6004
     10 C8          3.6291   -3.9113    4.3955 C.3       1 <0>         0.0824
     11 C9          2.3441   -4.6948    4.0287 C.3       1 <0>        -0.1322
     12 C10         1.9271   -4.0059    2.7025 C.3       1 <0>        -0.1171
     13 C11         2.3244   -2.5334    2.9381 C.3       1 <0>         0.2355
     14 H1          1.4765   -1.9123    3.2625 H         1 <0>         0.0937
     15 C12         2.8820   -1.9435    1.6683 C.2       1 <0>         0.1637
     16 N2          4.0480   -2.2035    1.1386 N.2       1 <0>        -0.2806
     17 N3          4.1918   -1.5270    0.0525 N.2       1 <0>        -0.2935
     18 C13         3.1242   -0.8115   -0.1596 C.2       1 <0>         0.1841
     19 N4          2.2699   -1.0469    0.8636 N.pl3     1 <0>        -0.4568
     20 C14         0.9522   -0.4405    1.0550 C.3       1 <0>         0.1002
     21 C15         0.3604   -0.0707   -0.3080 C.3       1 <0>        -0.1403
     22 C16         0.7877    1.3461   -0.6884 C.3       1 <0>        -0.1258
     23 C17         2.3065    1.4336   -0.8038 C.3       1 <0>        -0.1264
     24 C18         2.8589    0.1041   -1.3264 C.3       1 <0>        -0.0386
     25 Br1         7.9460   -1.9477    9.1213 Br        1 <0>        -0.0395
     26 H2          5.4870   -3.5564    5.0986 H         1 <0>         0.1508
     27 H3          7.0956   -3.7533    6.9483 H         1 <0>         0.1416
     28 H4          6.1418    0.2072    8.2232 H         1 <0>         0.1418
     29 H5          4.5368    0.4273    6.3731 H         1 <0>         0.1423
     30 H6          4.5056   -4.2865    3.8469 H         1 <0>         0.0823
     31 H7          3.8315   -3.9437    5.4762 H         1 <0>         0.0912
     32 H8          2.5868   -5.7607    3.9069 H         1 <0>         0.0945
     33 H9          1.6013   -4.5773    4.8315 H         1 <0>         0.0830
     34 H10         2.4736   -4.4629    1.8643 H         1 <0>         0.0912
     35 H11         0.8455   -4.1329    2.5476 H         1 <0>         0.0927
     36 H12         0.2889   -1.1571    1.5615 H         1 <0>         0.0946
     37 H13         1.0515    0.4656    1.6707 H         1 <0>         0.0930
     38 H14         0.7229   -0.7774   -1.0690 H         1 <0>         0.0822
     39 H15        -0.7373   -0.1188   -0.2564 H         1 <0>         0.0905
     40 H16         0.3398    1.6168   -1.6559 H         1 <0>         0.0753
     41 H17         0.4469    2.0516    0.0837 H         1 <0>         0.0709
     42 H18         2.5753    2.2407   -1.5011 H         1 <0>         0.0823
     43 H19         2.7378    1.6452    0.1857 H         1 <0>         0.0662
     44 H20         3.7965    0.2821   -1.8734 H         1 <0>         0.1013
     45 H21         2.1248   -0.3629   -1.9995 H         1 <0>         0.0936
@<TRIPOS>BOND
     1    1    6 ar
     2    1    2 ar
     3    1   26 1
     4    2    3 ar
     5    2   27 1
     6    3    4 ar
     7    3   25 1
     8    4    5 ar
     9    4   28 1
    10    5    6 ar
    11    5   29 1
    12    6    7 1
    13    7    8 2
    14    7    9 am
    15    9   13 1
    16    9   10 1
    17   10   11 1
    18   10   30 1
    19   10   31 1
    20   11   12 1
    21   11   32 1
    22   11   33 1
    23   12   13 1
    24   12   34 1
    25   12   35 1
    26   13   14 1
    27   13   15 1
    28   15   19 1
    29   15   16 2
    30   16   17 1
    31   17   18 2
    32   18   24 1
    33   18   19 1
    34   19   20 1
    35   20   21 1
    36   20   36 1
    37   20   37 1
    38   21   22 1
    39   21   38 1
    40   21   39 1
    41   22   23 1
    42   22   40 1
    43   22   41 1
    44   23   24 1
    45   23   42 1
    46   23   43 1
    47   24   44 1
    48   24   45 1
@<TRIPOS>MOLECULE
ZINC45794677
   37    40     0     0     0
SMALL
USER_CHARGES

@<TRIPOS>ATOM
      1 C1         -0.2378    0.8392    1.8548 C.ar      1 <0>        -0.0953
      2 C2          0.5977    1.3245    0.8656 C.ar      1 <0>        -0.1067
      3 C3          1.8325    0.7426    0.6557 C.ar      1 <0>        -0.0804
      4 C4          2.2349   -0.3305    1.4395 C.ar      1 <0>         0.0851
      5 C5          1.3940   -0.8152    2.4323 C.ar      1 <0>        -0.0853
      6 C6          0.1601   -0.2294    2.6371 C.ar      1 <0>        -0.1088
      7 N1          3.4870   -0.9233    1.2287 N.am      1 <0>        -0.4748
      8 C7          3.5463   -2.1590    0.7613 C.2       1 <0>         0.5439
      9 O1          2.5406   -2.7961    0.5088 O.2       1 <0>        -0.4407
     10 C8          4.8952   -2.7263    0.5607 C.2       1 <0>        -0.2319
     11 C9          5.2595   -3.9501    0.1005 C.2       1 <0>         0.0857
     12 C10         6.6647   -4.3718    0.1683 C.ar      1 <0>        -0.0745
     13 C11         7.5985   -3.5943    0.8645 C.ar      1 <0>        -0.0711
     14 C12         8.9148   -3.9928    0.9258 C.ar      1 <0>        -0.0814
     15 C13         9.3191   -5.1657    0.2978 C.ar      1 <0>         0.1553
     16 C14         8.3953   -5.9433   -0.3961 C.ar      1 <0>         0.0847
     17 C15         7.0737   -5.5552   -0.4581 C.ar      1 <0>        -0.0795
     18 F1          8.7936   -7.0818   -1.0048 F         1 <0>        -0.1219
     19 N2         10.6589   -5.5659    0.3630 N.pl3     1 <0>        -0.3423
     20 C16        11.2017   -6.6662   -0.1946 C.2       1 <0>         0.2643
     21 N3         12.4774   -6.6801    0.0960 N.2       1 <0>        -0.5298
     22 C17        12.7853   -5.6129    0.8324 C.2       1 <0>         0.2191
     23 N4         11.7066   -4.8975    1.0173 N.2       1 <0>        -0.3116
     24 S1          5.9161   -1.3576    1.0899 S.3       1 <0>         0.0817
     25 C18         4.6040   -0.2189    1.5019 C.2       1 <0>         0.2522
     26 S2          4.7327    1.3796    2.1013 S.2       1 <0>        -0.3017
     27 H1         -1.2012    1.2986    2.0198 H         1 <0>         0.1336
     28 H2          0.2841    2.1593    0.2562 H         1 <0>         0.1362
     29 H3          2.4843    1.1216   -0.1176 H         1 <0>         0.1276
     30 H4          1.7041   -1.6500    3.0434 H         1 <0>         0.1252
     31 H5         -0.4944   -0.6060    3.4092 H         1 <0>         0.1352
     32 H6          4.5160   -4.6139   -0.3155 H         1 <0>         0.1723
     33 H7          7.2864   -2.6828    1.3526 H         1 <0>         0.1452
     34 H8          9.6350   -3.3930    1.4624 H         1 <0>         0.1613
     35 H9          6.3563   -6.1607   -0.9921 H         1 <0>         0.1644
     36 H10        10.6757   -7.4069   -0.7787 H         1 <0>         0.2351
     37 H11        13.7683   -5.3749    1.2112 H         1 <0>         0.2294
@<TRIPOS>BOND
     1    1    6 ar
     2    1    2 ar
     3    1   27 1
     4    2    3 ar
     5    2   28 1
     6    3    4 ar
     7    3   29 1
     8    4    5 ar
     9    4    7 1
    10    5    6 ar
    11    5   30 1
    12    6   31 1
    13    7   25 1
    14    7    8 am
    15    8    9 2
    16    8   10 1
    17   10   11 2
    18   10   24 1
    19   11   12 1
    20   11   32 1
    21   12   17 ar
    22   12   13 ar
    23   13   14 ar
    24   13   33 1
    25   14   15 ar
    26   14   34 1
    27   15   16 ar
    28   15   19 1
    29   16   17 ar
    30   16   18 1
    31   17   35 1
    32   19   23 1
    33   19   20 1
    34   20   21 2
    35   20   36 1
    36   21   22 1
    37   22   23 2
    38   22   37 1
    39   24   25 1
    40   25   26 2
@<TRIPOS>MOLECULE
ZINC56125081
   38    39     0     0     0
SMALL
USER_CHARGES

@<TRIPOS>ATOM
      1 C1         -1.8770    0.7529    0.1722 C.3       1 <0>        -0.1274
      2 C2         -1.3822   -0.6659    0.0579 C.ar      1 <0>        -0.0191
      3 C3         -2.0020   -1.6739    0.7730 C.ar      1 <0>        -0.1247
      4 C4         -1.5486   -2.9754    0.6685 C.ar      1 <0>        -0.0091
      5 C5         -0.4750   -3.2698   -0.1511 C.ar      1 <0>        -0.6667
      6 C6          0.1451   -2.2620   -0.8669 C.ar      1 <0>         0.0013
      7 C7         -0.3125   -0.9602   -0.7661 C.ar      1 <0>        -0.1098
      8 Br1         1.6141   -2.6640   -1.9877 Br        1 <0>        -0.0174
      9 S1          0.1036   -4.9289   -0.2832 S.o2      1 <0>         2.6769
     10 O1         -0.8024   -5.7352    0.4571 O.2       1 <0>        -0.9360
     11 O2          0.3758   -5.1556   -1.6594 O.2       1 <0>        -0.9281
     12 N1          1.5578   -5.0045    0.5055 N.pl3     1 <0>        -0.9771
     13 C8          1.5941   -5.1147    1.9659 C.3       1 <0>         0.2266
     14 C9          1.6480   -6.5348    2.3496 C.1       1 <0>        -0.2220
     15 C10         1.6910   -7.6674    2.6556 C.1       1 <0>        -0.1576
     16 C11         2.8079   -4.9612   -0.2571 C.3       1 <0>         0.1402
     17 H1          2.5832   -4.7967   -1.3110 H         1 <0>         0.1314
     18 C12         3.6841   -3.8100    0.2639 C.3       1 <0>        -0.1535
     19 C13         5.1104   -3.9784   -0.3335 C.3       1 <0>        -0.5721
     20 S2          5.3208   -5.8036   -0.1945 S.o2      1 <0>         2.3689
     21 O3          5.9562   -6.1030    1.0407 O.2       1 <0>        -0.9275
     22 O4          5.8770   -6.2983   -1.4050 O.2       1 <0>        -0.9305
     23 C14         3.5554   -6.3067   -0.0952 C.3       1 <0>        -0.6049
     24 H2         -2.6433    0.9324   -0.5820 H         1 <0>         0.0854
     25 H3         -2.2996    0.9115    1.1644 H         1 <0>         0.0788
     26 H4         -1.0461    1.4412    0.0169 H         1 <0>         0.0772
     27 H5         -2.8406   -1.4441    1.4137 H         1 <0>         0.1433
     28 H6         -2.0329   -3.7624    1.2276 H         1 <0>         0.1540
     29 H7          0.1691   -0.1735   -1.3279 H         1 <0>         0.1449
     30 H8          2.4770   -4.6016    2.3471 H         1 <0>         0.1139
     31 H9          0.6984   -4.6583    2.3871 H         1 <0>         0.1086
     32 H10         1.7295   -8.6804    2.9293 H         1 <0>         0.2217
     33 H11         3.2633   -2.8553   -0.0514 H         1 <0>         0.1118
     34 H12         3.7339   -3.8486    1.3520 H         1 <0>         0.1013
     35 H13         5.1425   -3.6560   -1.3742 H         1 <0>         0.1423
     36 H14         5.8529   -3.4494    0.2640 H         1 <0>         0.1500
     37 H15         3.3356   -6.7570    0.8728 H         1 <0>         0.1534
     38 H16         3.3027   -6.9894   -0.9065 H         1 <0>         0.1517
@<TRIPOS>BOND
     1    1    2 1
     2    1   24 1
     3    1   25 1
     4    1   26 1
     5    2    7 ar
     6    2    3 ar
     7    3    4 ar
     8    3   27 1
     9    4    5 ar
    10    4   28 1
    11    5    6 ar
    12    5    9 1
    13    6    7 ar
    14    6    8 1
    15    7   29 1
    16    9   10 2
    17    9   11 2
    18    9   12 1
    19   12   13 1
    20   12   16 1
    21   13   14 1
    22   13   30 1
    23   13   31 1
    24   14   15 3
    25   15   32 1
    26   16   17 1
    27   16   23 1
    28   16   18 1
    29   18   19 1
    30   18   33 1
    31   18   34 1
    32   19   20 1
    33   19   35 1
    34   19   36 1
    35   20   21 2
    36   20   22 2
    37   20   23 1
    38   23   37 1
    39   23   38 1
@<TRIPOS>MOLECULE
ZINC65773616
   37    40     0     0     0
SMALL
USER_CHARGES

@<TRIPOS>ATOM
      1 C1          0.2465    0.9374   -0.0852 C.ar      1 <0>        -0.1540
      2 C2          1.4055    1.6961   -0.0616 C.ar      1 <0>        -0.1074
      3 C3          2.3934    1.4252   -1.0049 C.ar      1 <0>         0.1107
      4 C4          2.1941    0.4134   -1.9310 C.ar      1 <0>         0.0999
      5 N1          1.0693   -0.2833   -1.9170 N.ar      1 <0>        -0.4666
      6 C5          0.1142   -0.0536   -1.0399 C.ar      1 <0>         0.0783
      7 C6          3.2416    0.0797   -2.9616 C.3       1 <0>        -0.0666
      8 C7          4.1931    1.2592   -3.1592 C.3       1 <0>        -0.1390
      9 C8          4.7187    1.7095   -1.7900 C.3       1 <0>         0.1150
     10 N2          3.5711    2.1819   -1.0028 N.am      1 <0>        -0.5330
     11 C9          3.6510    3.3240   -0.2917 C.2       1 <0>         0.5985
     12 O1          2.6637    3.7618    0.2694 O.2       1 <0>        -0.5157
     13 C10         4.9280    4.0396   -0.1941 C.2       1 <0>        -0.3620
     14 C11         4.9851    5.4303   -0.3606 C.2       1 <0>         0.2633
     15 N3          6.1414    6.0536   -0.2691 N.2       1 <0>        -0.5348
     16 C12         7.2764    5.3947   -0.0194 C.2       1 <0>         0.4064
     17 C13         8.4810    6.1120    0.0675 C.2       1 <0>        -0.1232
     18 C14         9.6440    5.4456    0.3222 C.2       1 <0>        -0.0041
     19 C15         9.6197    4.0551    0.4934 C.2       1 <0>        -0.1440
     20 C16         8.4483    3.3816    0.4058 C.2       1 <0>         0.1412
     21 N4          7.2840    4.0398    0.1525 N.am      1 <0>        -0.4216
     22 C17         6.1301    3.3419    0.0763 C.2       1 <0>         0.5254
     23 O2          6.1245    2.1333    0.2328 O.2       1 <0>        -0.5016
     24 Br1        11.2241    3.1184    0.8462 Br        1 <0>         0.0133
     25 H1         -0.5395    1.1145    0.6339 H         1 <0>         0.1388
     26 H2          1.5394    2.4787    0.6704 H         1 <0>         0.1745
     27 H3         -0.7866   -0.6488   -1.0668 H         1 <0>         0.1571
     28 H4          3.8098   -0.7889   -2.6287 H         1 <0>         0.0866
     29 H5          2.7538   -0.1516   -3.9085 H         1 <0>         0.0926
     30 H6          5.0289    0.9525   -3.7881 H         1 <0>         0.0921
     31 H7          3.6599    2.0827   -3.6342 H         1 <0>         0.0738
     32 H8          5.1941    0.8700   -1.2826 H         1 <0>         0.0922
     33 H9          5.4371    2.5192   -1.9182 H         1 <0>         0.0781
     34 H10         4.0834    5.9889   -0.5638 H         1 <0>         0.1862
     35 H11         8.4866    7.1837   -0.0667 H         1 <0>         0.1834
     36 H12        10.5766    5.9858    0.3911 H         1 <0>         0.1693
     37 H13         8.4375    2.3099    0.5389 H         1 <0>         0.1966
@<TRIPOS>BOND
     1    1    6 ar
     2    1    2 ar
     3    1   25 1
     4    2    3 ar
     5    2   26 1
     6    3   10 1
     7    3    4 ar
     8    4    5 ar
     9    4    7 1
    10    5    6 ar
    11    6   27 1
    12    7    8 1
    13    7   28 1
    14    7   29 1
    15    8    9 1
    16    8   30 1
    17    8   31 1
    18    9   10 1
    19    9   32 1
    20    9   33 1
    21   10   11 am
    22   11   12 2
    23   11   13 1
    24   13   22 1
    25   13   14 2
    26   14   15 1
    27   14   34 1
    28   15   16 2
    29   16   21 1
    30   16   17 1
    31   17   18 2
    32   17   35 1
    33   18   19 1
    34   18   36 1
    35   19   20 2
    36   19   24 1
    37   20   21 1
    38   20   37 1
    39   21   22 am
    40   22   23 2
@<TRIPOS>MOLECULE
ZINC08831479
   47    49     0     0     0
SMALL
USER_CHARGES
5-(3-chlorophenyl)-N-[(2-chloro-5-propanoylamino-phenyl)thiocarbamoyl]furan-2-carboxamide
@<TRIPOS>ATOM
      1 C1          2.3032    1.2942   -1.1569 C.3       1 <0>        -0.1398
      2 C2          0.9954    1.5804   -1.8977 C.3       1 <0>        -0.1430
      3 C3         -0.1696    1.1462   -1.0462 C.2       1 <0>         0.5131
      4 O1          0.0267    0.6561    0.0457 O.2       1 <0>        -0.5143
      5 N1         -1.4295    1.2975   -1.5003 N.am      1 <0>        -0.6693
      6 C4         -2.5052    0.7909   -0.7618 C.ar      1 <0>         0.1642
      7 C5         -2.3227   -0.3090    0.0670 C.ar      1 <0>        -0.1074
      8 C6         -3.3823   -0.8064    0.8010 C.ar      1 <0>        -0.0819
      9 C7         -4.6299   -0.2187    0.7044 C.ar      1 <0>        -0.0578
     10 C8         -4.8199    0.8785   -0.1276 C.ar      1 <0>         0.1494
     11 C9         -3.7558    1.3833   -0.8612 C.ar      1 <0>        -0.0962
     12 N2         -6.0827    1.4736   -0.2249 N.pl3     1 <0>        -0.6137
     13 C10        -6.1911    2.8143   -0.3088 C.2       1 <0>         0.5109
     14 S1         -4.7897    3.7937   -0.2204 S.2       1 <0>        -0.4685
     15 N3         -7.4029    3.3841   -0.4623 N.am      1 <0>        -0.6359
     16 C11        -7.5114    4.7248   -0.5462 C.2       1 <0>         0.5864
     17 O2         -6.5152    5.4210   -0.4834 O.2       1 <0>        -0.3804
     18 C12        -8.8276    5.3437   -0.7129 C.2       1 <0>        -0.0883
     19 C13        -9.0800    6.6953   -0.8119 C.2       1 <0>        -0.0911
     20 C14       -10.4630    6.8376   -0.9600 C.2       1 <0>        -0.1956
     21 C15       -10.9997    5.5819   -0.9462 C.2       1 <0>         0.0722
     22 O3        -10.0053    4.6901   -0.8023 O.3       1 <0>        -0.1599
     23 C16       -12.4349    5.2577   -1.0747 C.ar      1 <0>        -0.0173
     24 C17       -12.8587    3.9272   -1.0454 C.ar      1 <0>        -0.0929
     25 C18       -14.2004    3.6308   -1.1653 C.ar      1 <0>        -0.1025
     26 C19       -15.1266    4.6480   -1.3141 C.ar      1 <0>        -0.0956
     27 C20       -14.7140    5.9694   -1.3441 C.ar      1 <0>        -0.0323
     28 C21       -13.3744    6.2801   -1.2201 C.ar      1 <0>        -0.0827
     29 Cl1       -15.8839    7.2382   -1.5317 Cl        1 <0>        -0.0550
     30 Cl2        -5.9601   -0.8511    1.6233 Cl        1 <0>        -0.0643
     31 H1          3.1459    1.6082   -1.7728 H         1 <0>         0.0649
     32 H2          2.3158    1.8444   -0.2161 H         1 <0>         0.0637
     33 H3          2.3796    0.2259   -0.9541 H         1 <0>         0.0630
     34 H4          0.9829    1.0302   -2.8385 H         1 <0>         0.0988
     35 H5          0.9191    2.6487   -2.1005 H         1 <0>         0.0986
     36 H6         -1.5909    1.7575   -2.3389 H         1 <0>         0.4148
     37 H7         -1.3503   -0.7732    0.1409 H         1 <0>         0.1540
     38 H8         -3.2367   -1.6588    1.4480 H         1 <0>         0.1447
     39 H9         -3.9008    2.2354   -1.5087 H         1 <0>         0.1616
     40 H10        -6.8799    0.9211   -0.2320 H         1 <0>         0.4119
     41 H11        -8.1969    2.8292   -0.5124 H         1 <0>         0.4161
     42 H12        -8.3502    7.4908   -0.7816 H         1 <0>         0.1715
     43 H13       -11.0050    7.7658   -1.0650 H         1 <0>         0.1657
     44 H14       -12.1373    3.1319   -0.9293 H         1 <0>         0.1355
     45 H15       -14.5289    2.6022   -1.1428 H         1 <0>         0.1412
     46 H16       -16.1760    4.4102   -1.4069 H         1 <0>         0.1407
     47 H17       -13.0537    7.3112   -1.2394 H         1 <0>         0.1431
@<TRIPOS>BOND
     1    1    2 1
     2    1   31 1
     3    1   32 1
     4    1   33 1
     5    2    3 1
     6    2   34 1
     7    2   35 1
     8    3    4 2
     9    3    5 am
    10    5    6 1
    11    5   36 1
    12    6   11 ar
    13    6    7 ar
    14    7    8 ar
    15    7   37 1
    16    8    9 ar
    17    8   38 1
    18    9   10 ar
    19    9   30 1
    20   10   11 ar
    21   10   12 1
    22   11   39 1
    23   12   13 1
    24   12   40 1
    25   13   14 2
    26   13   15 1
    27   15   16 am
    28   15   41 1
    29   16   17 2
    30   16   18 1
    31   18   22 1
    32   18   19 2
    33   19   20 1
    34   19   42 1
    35   20   21 2
    36   20   43 1
    37   21   22 1
    38   21   23 1
    39   23   28 ar
    40   23   24 ar
    41   24   25 ar
    42   24   44 1
    43   25   26 ar
    44   25   45 1
    45   26   27 ar
    46   26   46 1
    47   27   28 ar
    48   27   29 1
    49   28   47 1
@<TRIPOS>MOLECULE
ZINC13130660
   61    65     0     0     0
SMALL
USER_CHARGES
[3-amino-5-(m-tolylamino)-4-(4-phenylpiperazine-1-carbonyl)-2-thienyl]-(2-thienyl)methanone
@<TRIPOS>ATOM
      1 C1         -2.0389    0.7910    0.7265 C.3       1 <0>        -0.1192
      2 C2         -0.9862    1.6818    0.1188 C.ar      1 <0>        -0.0534
      3 C3          0.0067    1.1359   -0.6745 C.ar      1 <0>        -0.1306
      4 C4          0.9711    1.9504   -1.2387 C.ar      1 <0>        -0.0784
      5 C5          0.9490    3.3119   -1.0073 C.ar      1 <0>        -0.1572
      6 C6         -0.0435    3.8627   -0.2068 C.ar      1 <0>         0.1438
      7 C7         -1.0111    3.0414    0.3585 C.ar      1 <0>        -0.1399
      8 N1         -0.0691    5.2400    0.0290 N.pl3     1 <0>        -0.6073
      9 C8          1.1091    5.9433    0.1249 C.2       1 <0>         0.1958
     10 C9          1.2873    7.3260    0.2372 C.2       1 <0>        -0.3379
     11 C10         2.5907    7.8083    0.3254 C.2       1 <0>         0.3563
     12 C11         3.6156    6.8690    0.2825 C.2       1 <0>        -0.4213
     13 S1          2.7295    5.3300    0.1281 S.3       1 <0>         0.1944
     14 C12         5.0105    7.0815    0.3462 C.2       1 <0>         0.5314
     15 O1          5.4509    8.2147    0.4533 O.2       1 <0>        -0.4845
     16 C13         5.9313    5.9384    0.2836 C.2       1 <0>        -0.2437
     17 C14         7.3158    5.9295    0.3232 C.2       1 <0>        -0.0793
     18 C15         7.9359    4.7057    0.2492 C.2       1 <0>        -0.1775
     19 C16         7.1782    3.5847    0.1322 C.2       1 <0>        -0.1833
     20 S2          5.5578    4.2008    0.1288 S.3       1 <0>         0.1397
     21 N2          2.8551    9.1645    0.4445 N.pl3     1 <0>        -0.8227
     22 C17         0.1397    8.2369    0.2660 C.2       1 <0>         0.5844
     23 O2         -0.3743    8.5348    1.3283 O.2       1 <0>        -0.5262
     24 N3         -0.3464    8.7449   -0.8838 N.am      1 <0>        -0.6070
     25 C18         0.2635    8.4028   -2.1777 C.3       1 <0>         0.1123
     26 C19        -0.8500    7.9290   -3.1253 C.3       1 <0>         0.0457
     27 N4         -1.9021    8.9523   -3.1864 N.pl3     1 <0>        -0.4865
     28 C20        -2.5377    9.1421   -1.8757 C.3       1 <0>         0.0382
     29 C21        -1.4972    9.6608   -0.8775 C.3       1 <0>         0.1121
     30 C22        -2.8508    8.6371   -4.1619 C.ar      1 <0>         0.1086
     31 C23        -4.1935    8.5366   -3.8203 C.ar      1 <0>        -0.1711
     32 C24        -5.1295    8.2295   -4.7882 C.ar      1 <0>        -0.0930
     33 C25        -4.7302    8.0118   -6.0941 C.ar      1 <0>        -0.1442
     34 C26        -3.3937    8.1059   -6.4365 C.ar      1 <0>        -0.0941
     35 C27        -2.4531    8.4178   -5.4746 C.ar      1 <0>        -0.1392
     36 H1         -1.7017    0.4443    1.7034 H         1 <0>         0.0761
     37 H2         -2.9672    1.3508    0.8402 H         1 <0>         0.0685
     38 H3         -2.2092   -0.0666    0.0756 H         1 <0>         0.0718
     39 H4          0.0260    0.0717   -0.8573 H         1 <0>         0.1291
     40 H5          1.7428    1.5214   -1.8607 H         1 <0>         0.1340
     41 H6          1.7025    3.9475   -1.4485 H         1 <0>         0.1349
     42 H7         -1.7842    3.4664    0.9814 H         1 <0>         0.1284
     43 H8         -0.9177    5.6999    0.1251 H         1 <0>         0.4215
     44 H9          7.8830    6.8443    0.4116 H         1 <0>         0.1463
     45 H10         9.0133    4.6363    0.2793 H         1 <0>         0.1398
     46 H11         7.5057    2.5582    0.0593 H         1 <0>         0.1905
     47 H12         3.7718    9.4768    0.5003 H         1 <0>         0.4219
     48 H13         2.1234    9.8007    0.4719 H         1 <0>         0.3993
     49 H14         0.7541    9.2821   -2.5951 H         1 <0>         0.0828
     50 H15         0.9926    7.6044   -2.0392 H         1 <0>         0.0944
     51 H16        -1.2725    6.9945   -2.7560 H         1 <0>         0.0479
     52 H17        -0.4361    7.7729   -4.1215 H         1 <0>         0.0965
     53 H18        -2.9367    8.1907   -1.5238 H         1 <0>         0.0501
     54 H19        -3.3479    9.8657   -1.9657 H         1 <0>         0.0983
     55 H20        -1.9328    9.6945    0.1211 H         1 <0>         0.1021
     56 H21        -1.1720   10.6595   -1.1690 H         1 <0>         0.0812
     57 H22        -4.5056    8.7021   -2.7996 H         1 <0>         0.1254
     58 H23        -6.1741    8.1552   -4.5241 H         1 <0>         0.1226
     59 H24        -5.4638    7.7681   -6.8483 H         1 <0>         0.1219
     60 H25        -3.0852    7.9357   -7.4574 H         1 <0>         0.1248
     61 H26        -1.4095    8.4909   -5.7427 H         1 <0>         0.1247
@<TRIPOS>BOND
     1    1    2 1
     2    1   36 1
     3    1   37 1
     4    1   38 1
     5    2    7 ar
     6    2    3 ar
     7    3    4 ar
     8    3   39 1
     9    4    5 ar
    10    4   40 1
    11    5    6 ar
    12    5   41 1
    13    6    7 ar
    14    6    8 1
    15    7   42 1
    16    8    9 1
    17    8   43 1
    18    9   13 1
    19    9   10 2
    20   10   11 1
    21   10   22 1
    22   11   12 2
    23   11   21 1
    24   12   13 1
    25   12   14 1
    26   14   15 2
    27   14   16 1
    28   16   20 1
    29   16   17 2
    30   17   18 1
    31   17   44 1
    32   18   19 2
    33   18   45 1
    34   19   20 1
    35   19   46 1
    36   21   47 1
    37   21   48 1
    38   22   23 2
    39   22   24 am
    40   24   29 1
    41   24   25 1
    42   25   26 1
    43   25   49 1
    44   25   50 1
    45   26   27 1
    46   26   51 1
    47   26   52 1
    48   27   28 1
    49   27   30 1
    50   28   29 1
    51   28   53 1
    52   28   54 1
    53   29   55 1
    54   29   56 1
    55   30   35 ar
    56   30   31 ar
    57   31   32 ar
    58   31   57 1
    59   32   33 ar
    60   32   58 1
    61   33   34 ar
    62   33   59 1
    63   34   35 ar
    64   34   60 1
    65   35   61 1
@<TRIPOS>MOLECULE
ZINC20817751
   41    43     0     0     0
SMALL
USER_CHARGES
(2S)-2-[[4-amino-5-(trifluoromethyl)-1,2,4-triazol-3-yl]sulfanyl]-N-(3,5-dichlorophenyl)-2-phenyl-acetamide
@<TRIPOS>ATOM
      1 C1          2.4371    4.2675    3.6297 C.ar      1 <0>        -0.1032
      2 C2          1.8897    4.6596    2.4224 C.ar      1 <0>        -0.1196
      3 C3          2.3891    4.1490    1.2388 C.ar      1 <0>        -0.0687
      4 C4          3.4361    3.2467    1.2626 C.ar      1 <0>        -0.1036
      5 C5          3.9800    2.8507    2.4701 C.ar      1 <0>        -0.0938
      6 C6          3.4835    3.3646    3.6535 C.ar      1 <0>        -0.1229
      7 C7          3.9806    2.6902   -0.0277 C.3       1 <0>        -0.0675
      8 H1          3.4856    3.2856   -0.8091 H         1 <0>         0.1383
      9 C8          5.4382    3.0510   -0.1550 C.2       1 <0>         0.5434
     10 O1          6.2914    2.2341    0.1204 O.2       1 <0>        -0.5008
     11 N1          5.7937    4.2813   -0.5749 N.am      1 <0>        -0.6721
     12 C9          7.1436    4.6487   -0.6009 C.ar      1 <0>         0.1771
     13 C10         7.5142    5.9561   -0.3152 C.ar      1 <0>        -0.1304
     14 C11         8.8490    6.3151   -0.3360 C.ar      1 <0>        -0.0045
     15 C12         9.8145    5.3757   -0.6523 C.ar      1 <0>        -0.1166
     16 C13         9.4474    4.0735   -0.9429 C.ar      1 <0>        -0.0047
     17 C14         8.1145    3.7080   -0.9180 C.ar      1 <0>        -0.1118
     18 Cl1        10.6618    2.8979   -1.3387 Cl        1 <0>        -0.0472
     19 Cl2         9.3137    7.9478    0.0275 Cl        1 <0>        -0.0478
     20 S1          3.8023    0.8890   -0.0307 S.3       1 <0>         0.1190
     21 C15         2.0454    0.7554   -0.0260 C.2       1 <0>         0.1389
     22 N2          1.1870    1.7487   -0.0212 N.2       1 <0>        -0.2553
     23 N3         -0.0131    1.2886   -0.0184 N.2       1 <0>        -0.2017
     24 C16         0.0074   -0.0142   -0.0212 C.2       1 <0>         0.0539
     25 N4          1.3191   -0.4008   -0.0261 N.pl3     1 <0>        -0.1828
     26 N5          1.8025   -1.6785   -0.0303 N.3       1 <0>        -0.7582
     27 C17        -1.1924   -0.9262   -0.0201 C.3       1 <0>         0.5737
     28 F1         -2.3356   -0.1932   -0.3565 F         1 <0>        -0.1421
     29 F2         -1.0019   -1.9486   -0.9559 F         1 <0>        -0.1659
     30 F3         -1.3536   -1.4833    1.2530 F         1 <0>        -0.1603
     31 H2          2.0474    4.6669    4.5544 H         1 <0>         0.1238
     32 H3          1.0722    5.3650    2.4038 H         1 <0>         0.1268
     33 H4          1.9615    4.4553    0.2956 H         1 <0>         0.1291
     34 H5          4.7951    2.1424    2.4889 H         1 <0>         0.1264
     35 H6          3.9114    3.0585    4.5967 H         1 <0>         0.1243
     36 H7          5.0227    4.9966   -0.8972 H         1 <0>         0.4457
     37 H8          6.7606    6.6908   -0.0726 H         1 <0>         0.1455
     38 H9         10.8564    5.6594   -0.6727 H         1 <0>         0.1472
     39 H10         7.8285    2.6915   -1.1446 H         1 <0>         0.1568
     40 H11         1.1061   -2.5300   -0.0299 H         1 <0>         0.4549
     41 H12         2.8881   -1.8558   -0.0341 H         1 <0>         0.4569
@<TRIPOS>BOND
     1    1    6 ar
     2    1    2 ar
     3    1   31 1
     4    2    3 ar
     5    2   32 1
     6    3    4 ar
     7    3   33 1
     8    4    5 ar
     9    4    7 1
    10    5    6 ar
    11    5   34 1
    12    6   35 1
    13    7    8 1
    14    7    9 1
    15    7   20 1
    16    9   10 2
    17    9   11 am
    18   11   12 1
    19   11   36 1
    20   12   17 ar
    21   12   13 ar
    22   13   14 ar
    23   13   37 1
    24   14   15 ar
    25   14   19 1
    26   15   16 ar
    27   15   38 1
    28   16   17 ar
    29   16   18 1
    30   17   39 1
    31   20   21 1
    32   21   25 1
    33   21   22 2
    34   22   23 1
    35   23   24 2
    36   24   25 1
    37   24   27 1
    38   25   26 1
    39   26   40 1
    40   26   41 1
    41   27   28 1
    42   27   29 1
    43   27   30 1
@<TRIPOS>MOLECULE
ZINC38645539
   52    55     0     0     0
SMALL
USER_CHARGES

@<TRIPOS>ATOM
      1 C1         -0.0184    1.5028    0.0103 C.3       1 <0>        -0.1252
      2 C2          0.0021   -0.0041    0.0020 C.ar      1 <0>        -0.0615
      3 C3          0.0057   -0.6888   -1.1991 C.ar      1 <0>        -0.1212
      4 C4          0.0245   -2.0707   -1.2067 C.ar      1 <0>        -0.1026
      5 C5          0.0400   -2.7685   -0.0132 C.ar      1 <0>        -0.1252
      6 C6          0.0373   -2.0840    1.1875 C.ar      1 <0>        -0.0928
      7 C7          0.0229   -0.7015    1.1951 C.ar      1 <0>        -0.0891
      8 C8          0.0252    0.0449    2.5043 C.3       1 <0>        -0.0691
      9 S1         -1.6839    0.3212    3.0458 S.3       1 <0>         0.0364
     10 C9         -1.5132    1.1923    4.5680 C.ar      1 <0>         0.2959
     11 N1         -0.2974    1.4771    5.0160 N.ar      1 <0>        -0.4946
     12 C10        -0.1269    2.1287    6.1521 C.ar      1 <0>         0.1894
     13 C11        -1.2416    2.5192    6.8845 C.ar      1 <0>        -0.1078
     14 C12        -2.5074    2.2044    6.3860 C.ar      1 <0>         0.1586
     15 N2         -2.6008    1.5495    5.2307 N.ar      1 <0>        -0.4678
     16 C13        -3.7288    2.5984    7.1292 C.2       1 <0>         0.5655
     17 O1         -3.6327    3.2000    8.1805 O.2       1 <0>        -0.4599
     18 N3         -4.9454    2.2892    6.6384 N.am      1 <0>        -0.5970
     19 C14        -6.0861    2.6573    7.3326 C.2       1 <0>         0.0320
     20 C15        -7.4078    2.4214    6.9864 C.2       1 <0>        -0.2272
     21 C16        -8.4297    2.9146    7.8929 C.2       1 <0>        -0.0620
     22 C17        -7.9431    3.5534    8.9790 C.2       1 <0>        -0.2199
     23 S2         -6.1858    3.4850    8.7902 S.3       1 <0>         0.2898
     24 C18        -8.7357    4.1721   10.0888 C.3       1 <0>        -0.0353
     25 C19       -10.1935    4.3051    9.6242 C.3       1 <0>        -0.1143
     26 C20       -10.6418    2.9750    9.0119 C.3       1 <0>        -0.1197
     27 C21        -9.9268    2.7482    7.6781 C.3       1 <0>        -0.0603
     28 C22        -7.7591    1.7046    5.7566 C.2       1 <0>         0.5843
     29 O2         -7.8799    0.4936    5.7714 O.2       1 <0>        -0.5316
     30 N4         -7.9483    2.3867    4.6097 N.am      1 <0>        -0.8470
     31 Cl1        -1.0645    3.3771    8.3833 Cl        1 <0>         0.0116
     32 H1          1.0042    1.8801    0.0026 H         1 <0>         0.0749
     33 H2         -0.5455    1.8639   -0.8728 H         1 <0>         0.0723
     34 H3         -0.5286    1.8543    0.9071 H         1 <0>         0.0702
     35 H4         -0.0064   -0.1437   -2.1314 H         1 <0>         0.1265
     36 H5          0.0266   -2.6056   -2.1449 H         1 <0>         0.1259
     37 H6          0.0540   -3.8484   -0.0191 H         1 <0>         0.1267
     38 H7          0.0491   -2.6290    2.1199 H         1 <0>         0.1265
     39 H8          0.5542   -0.5412    3.2558 H         1 <0>         0.1065
     40 H9          0.5249    1.0049    2.3743 H         1 <0>         0.1086
     41 H10         0.8673    2.3552    6.5079 H         1 <0>         0.1941
     42 H11        -5.0221    1.8090    5.7992 H         1 <0>         0.4295
     43 H12        -8.6884    3.5363   10.9729 H         1 <0>         0.0831
     44 H13        -8.3332    5.1578   10.3225 H         1 <0>         0.0818
     45 H14       -10.8279    4.5467   10.4770 H         1 <0>         0.0742
     46 H15       -10.2678    5.0947    8.8764 H         1 <0>         0.0681
     47 H16       -10.3991    2.1616    9.6957 H         1 <0>         0.0676
     48 H17       -11.7189    2.9976    8.8461 H         1 <0>         0.0706
     49 H18       -10.2749    3.4787    6.9479 H         1 <0>         0.0775
     50 H19       -10.1347    1.7405    7.3183 H         1 <0>         0.0761
     51 H20        -7.8520    3.3519    4.5978 H         1 <0>         0.4031
     52 H21        -8.1808    1.9125    3.7960 H         1 <0>         0.4038
@<TRIPOS>BOND
     1    1    2 1
     2    1   32 1
     3    1   33 1
     4    1   34 1
     5    2    7 ar
     6    2    3 ar
     7    3    4 ar
     8    3   35 1
     9    4    5 ar
    10    4   36 1
    11    5    6 ar
    12    5   37 1
    13    6    7 ar
    14    6   38 1
    15    7    8 1
    16    8    9 1
    17    8   39 1
    18    8   40 1
    19    9   10 1
    20   10   15 ar
    21   10   11 ar
    22   11   12 ar
    23   12   13 ar
    24   12   41 1
    25   13   14 ar
    26   13   31 1
    27   14   15 ar
    28   14   16 1
    29   16   17 2
    30   16   18 am
    31   18   19 1
    32   18   42 1
    33   19   23 1
    34   19   20 2
    35   20   21 1
    36   20   28 1
    37   21   27 1
    38   21   22 2
    39   22   23 1
    40   22   24 1
    41   24   25 1
    42   24   43 1
    43   24   44 1
    44   25   26 1
    45   25   45 1
    46   25   46 1
    47   26   27 1
    48   26   47 1
    49   26   48 1
    50   27   49 1
    51   27   50 1
    52   28   29 2
    53   28   30 am
    54   30   51 1
    55   30   52 1
@<TRIPOS>MOLECULE
ZINC59264852
   41    43     0     0     0
SMALL
USER_CHARGES

@<TRIPOS>ATOM
      1 C1         -0.0112    1.3749    0.0912 C.ar      1 <0>        -0.1094
      2 C2          1.1759    2.0861    0.0825 C.ar      1 <0>        -0.0968
      3 C3          2.3881    1.4204    0.0569 C.ar      1 <0>        -0.0949
      4 C4          2.4207    0.0401    0.0404 C.ar      1 <0>        -0.0603
      5 C5          1.2263   -0.6831    0.0496 C.ar      1 <0>         0.0013
      6 C6          0.0069   -0.0043    0.0748 C.ar      1 <0>        -0.0909
      7 C7          1.2531   -2.1610    0.0320 C.2       1 <0>         0.2466
      8 N1          2.3227   -2.9218    0.0132 N.2       1 <0>        -0.2330
      9 N2          1.9800   -4.1603    0.0026 N.2       1 <0>        -0.2702
     10 C8          0.6700   -4.2663    0.0140 C.2       1 <0>         0.1274
     11 N3          0.1617   -2.9988    0.0383 N.pl3     1 <0>        -0.3005
     12 N4         -1.1556   -2.6381    0.0612 N.3       1 <0>        -0.5820
     13 S1         -0.2576   -5.7643    0.0060 S.3       1 <0>        -0.0100
     14 C9          1.0078   -7.0638   -0.0200 C.3       1 <0>        -0.0817
     15 C10         0.3301   -8.4355   -0.0288 C.3       1 <0>        -0.1263
     16 C11         1.3813   -9.5151   -0.0504 C.2       1 <0>         0.5252
     17 O1          2.5569   -9.2168   -0.0580 O.2       1 <0>        -0.5044
     18 N5          1.0151  -10.8121   -0.0613 N.am      1 <0>        -0.6700
     19 C12         1.9875  -11.8132   -0.1761 C.ar      1 <0>         0.1605
     20 C13         3.2343  -11.6422    0.4104 C.ar      1 <0>        -0.0974
     21 C14         4.1917  -12.6310    0.2958 C.ar      1 <0>        -0.0838
     22 C15         3.9099  -13.7917   -0.4033 C.ar      1 <0>        -0.0386
     23 C16         2.6685  -13.9655   -0.9890 C.ar      1 <0>        -0.0831
     24 C17         1.7044  -12.9819   -0.8723 C.ar      1 <0>        -0.0539
     25 Cl1         0.1445  -13.2031   -1.6012 Cl        1 <0>        -0.0501
     26 Cl2         5.1165  -15.0317   -0.5460 Cl        1 <0>        -0.0532
     27 Br1         4.0788   -0.8684    0.0049 Br        1 <0>        -0.0055
     28 H1         -0.9541    1.9009    0.1153 H         1 <0>         0.1359
     29 H2          1.1557    3.1658    0.0953 H         1 <0>         0.1367
     30 H3          3.3109    1.9815    0.0496 H         1 <0>         0.1406
     31 H4         -0.9205   -0.5578    0.0820 H         1 <0>         0.1537
     32 H5         -1.5178   -2.5321   -0.8746 H         1 <0>         0.3690
     33 H6         -1.7032   -3.3021    0.5878 H         1 <0>         0.3789
     34 H7          1.6212   -6.9559   -0.9145 H         1 <0>         0.1101
     35 H8          1.6376   -6.9755    0.8653 H         1 <0>         0.1105
     36 H9         -0.2833   -8.5435    0.8657 H         1 <0>         0.1136
     37 H10        -0.2997   -8.5239   -0.9141 H         1 <0>         0.1135
     38 H11         0.0780  -11.0521    0.0103 H         1 <0>         0.4167
     39 H12         3.4554  -10.7365    0.9556 H         1 <0>         0.1597
     40 H13         5.1616  -12.4982    0.7520 H         1 <0>         0.1462
     41 H14         2.4513  -14.8721   -1.5343 H         1 <0>         0.1497
@<TRIPOS>BOND
     1    1    6 ar
     2    1    2 ar
     3    1   28 1
     4    2    3 ar
     5    2   29 1
     6    3    4 ar
     7    3   30 1
     8    4    5 ar
     9    4   27 1
    10    5    6 ar
    11    5    7 1
    12    6   31 1
    13    7   11 1
    14    7    8 2
    15    8    9 1
    16    9   10 2
    17   10   11 1
    18   10   13 1
    19   11   12 1
    20   12   32 1
    21   12   33 1
    22   13   14 1
    23   14   15 1
    24   14   34 1
    25   14   35 1
    26   15   16 1
    27   15   36 1
    28   15   37 1
    29   16   17 2
    30   16   18 am
    31   18   19 1
    32   18   38 1
    33   19   24 ar
    34   19   20 ar
    35   20   21 ar
    36   20   39 1
    37   21   22 ar
    38   21   40 1
    39   22   23 ar
    40   22   26 1
    41   23   24 ar
    42   23   41 1
    43   24   25 1
@<TRIPOS>MOLECULE
ZINC10453229
   59    60     0     0     0
SMALL
USER_CHARGES
N-[[2-(2-bromo-4-tert-butyl-phenoxy)acetyl]aminothiocarbamoyl]-4-isopropyl-benzamide
@<TRIPOS>ATOM
      1 C1         -5.1228    4.8912    1.3040 C.3       1 <0>        -0.1461
      2 C2         -5.0361    4.0200    0.0493 C.3       1 <0>        -0.0644
      3 C3         -5.1352    4.9056   -1.1944 C.3       1 <0>        -0.1461
      4 C4         -3.7209    3.2843    0.0385 C.ar      1 <0>        -0.0412
      5 C5         -3.7057    1.9008    0.0304 C.ar      1 <0>        -0.1206
      6 C6         -2.5054    1.2211    0.0206 C.ar      1 <0>        -0.0462
      7 C7         -1.3040    1.9324    0.0187 C.ar      1 <0>        -0.1434
      8 C8         -1.3265    3.3283    0.0323 C.ar      1 <0>        -0.0881
      9 C9         -2.5340    3.9955    0.0363 C.ar      1 <0>        -0.1196
     10 C10        -0.0144    1.2110    0.0087 C.2       1 <0>         0.5376
     11 O1          0.0021   -0.0041    0.0020 O.2       1 <0>        -0.3991
     12 N1          1.1435    1.9007    0.0013 N.am      1 <0>        -0.6440
     13 C11         2.3197    1.2428   -0.0134 C.2       1 <0>         0.5157
     14 S1          2.3429   -0.4690   -0.0228 S.2       1 <0>        -0.4485
     15 N2          3.4776    1.9325   -0.0208 N.pl3     1 <0>        -0.4548
     16 N3          3.4586    3.3334   -0.0131 N.am      1 <0>        -0.5515
     17 C12         4.6165    4.0231   -0.0204 C.2       1 <0>         0.5214
     18 O2          5.6749    3.4310   -0.0337 O.2       1 <0>        -0.4817
     19 C13         4.5960    5.5299   -0.0121 C.3       1 <0>         0.0510
     20 O3          5.9367    6.0245   -0.0223 O.3       1 <0>        -0.2751
     21 C14         6.0964    7.3742   -0.0165 C.ar      1 <0>         0.1461
     22 C15         4.9859    8.2053   -0.0015 C.ar      1 <0>        -0.2010
     23 C16         5.1508    9.5769    0.0048 C.ar      1 <0>        -0.0593
     24 C17         6.4216   10.1220   -0.0035 C.ar      1 <0>        -0.0959
     25 C18         7.5304    9.2966   -0.0180 C.ar      1 <0>        -0.0529
     26 C19         7.3711    7.9234   -0.0200 C.ar      1 <0>        -0.1163
     27 Br1         8.8881    6.7945   -0.0332 Br        1 <0>        -0.0274
     28 C20         6.5981   11.6187    0.0039 C.3       1 <0>        -0.0258
     29 C21         5.9529   12.2021    1.2626 C.3       1 <0>        -0.1404
     30 C22         8.0903   11.9563   -0.0076 C.3       1 <0>        -0.1499
     31 C23         5.9302   12.2171   -1.2358 C.3       1 <0>        -0.1404
     32 H1         -4.3041    5.6107    1.3041 H         1 <0>         0.0575
     33 H2         -6.0741    5.4233    1.3118 H         1 <0>         0.0625
     34 H3         -5.0522    4.2603    2.1900 H         1 <0>         0.0580
     35 H4         -5.8548    3.3005    0.0492 H         1 <0>         0.0834
     36 H5         -5.0734    4.2850   -2.0883 H         1 <0>         0.0580
     37 H6         -6.0865    5.4378   -1.1866 H         1 <0>         0.0625
     38 H7         -4.3164    5.6251   -1.1943 H         1 <0>         0.0575
     39 H8         -4.6358    1.3518    0.0315 H         1 <0>         0.1347
     40 H9         -2.4949    0.1412    0.0139 H         1 <0>         0.1424
     41 H10        -0.4008    3.8845    0.0355 H         1 <0>         0.1179
     42 H11        -2.5528    5.0753    0.0423 H         1 <0>         0.1313
     43 H12         1.1303    2.8706    0.0067 H         1 <0>         0.4004
     44 H13         4.3241    1.4590   -0.0314 H         1 <0>         0.4595
     45 H14         2.6121    3.8069   -0.0024 H         1 <0>         0.4190
     46 H15         4.0688    5.8910   -0.8952 H         1 <0>         0.1057
     47 H16         4.0858    5.8814    0.8847 H         1 <0>         0.1057
     48 H17         3.9930    7.7804    0.0057 H         1 <0>         0.1359
     49 H18         4.2863   10.2241    0.0165 H         1 <0>         0.1332
     50 H19         8.5219    9.7248   -0.0238 H         1 <0>         0.1457
     51 H20         6.4287   11.7758    2.1457 H         1 <0>         0.0579
     52 H21         6.0806   13.2846    1.2679 H         1 <0>         0.0618
     53 H22         4.8898   11.9615    1.2708 H         1 <0>         0.0568
     54 H23         8.5500   11.5406   -0.9043 H         1 <0>         0.0605
     55 H24         8.2180   13.0388   -0.0023 H         1 <0>         0.0629
     56 H25         8.5661   11.5300    0.8755 H         1 <0>         0.0605
     57 H26         4.8671   11.9765   -1.2276 H         1 <0>         0.0568
     58 H27         6.0579   13.2995   -1.2304 H         1 <0>         0.0618
     59 H28         6.3899   11.8014   -2.1325 H         1 <0>         0.0579
@<TRIPOS>BOND
     1    1    2 1
     2    1   32 1
     3    1   33 1
     4    1   34 1
     5    2    3 1
     6    2    4 1
     7    2   35 1
     8    3   36 1
     9    3   37 1
    10    3   38 1
    11    4    9 ar
    12    4    5 ar
    13    5    6 ar
    14    5   39 1
    15    6    7 ar
    16    6   40 1
    17    7    8 ar
    18    7   10 1
    19    8    9 ar
    20    8   41 1
    21    9   42 1
    22   10   11 2
    23   10   12 am
    24   12   13 1
    25   12   43 1
    26   13   14 2
    27   13   15 1
    28   15   16 1
    29   15   44 1
    30   16   17 am
    31   16   45 1
    32   17   18 2
    33   17   19 1
    34   19   20 1
    35   19   46 1
    36   19   47 1
    37   20   21 1
    38   21   26 ar
    39   21   22 ar
    40   22   23 ar
    41   22   48 1
    42   23   24 ar
    43   23   49 1
    44   24   25 ar
    45   24   28 1
    46   25   26 ar
    47   25   50 1
    48   26   27 1
    49   28   29 1
    50   28   30 1
    51   28   31 1
    52   29   51 1
    53   29   52 1
    54   29   53 1
    55   30   54 1
    56   30   55 1
    57   30   56 1
    58   31   57 1
    59   31   58 1
    60   31   59 1
@<TRIPOS>MOLECULE
ZINC16572699
   61    63     0     0     0
SMALL
USER_CHARGES
(2R,3S)-N-[5-(3-chlorophenyl)-1,3,4-thiadiazol-2-yl]-2-[(4-isopropylphenyl)carbamoylamino]-3-methyl-pentanamide
@<TRIPOS>ATOM
      1 C1         -3.7057    1.6709    2.8088 C.3       1 <0>        -0.1454
      2 C2         -4.5394    1.1963    1.6170 C.3       1 <0>        -0.1140
      3 C3         -3.6103    0.8328    0.4570 C.3       1 <0>        -0.0981
      4 H1         -2.9496    1.6731    0.2437 H         1 <0>         0.0836
      5 C4         -4.4454    0.5128   -0.7844 C.3       1 <0>        -0.1513
      6 C5         -2.7734   -0.3901    0.8378 C.3       1 <0>         0.1608
      7 H2         -2.2622   -0.2008    1.7817 H         1 <0>         0.1223
      8 C6         -1.7549   -0.6573   -0.2403 C.2       1 <0>         0.5102
      9 O1         -1.9715   -1.5020   -1.0832 O.2       1 <0>        -0.4554
     10 N1         -0.6033    0.0424   -0.2678 N.am      1 <0>        -0.6078
     11 C7          0.2851   -0.1229   -1.3232 C.2       1 <0>         0.2601
     12 N2          0.1957   -0.9097   -2.3837 N.2       1 <0>        -0.2823
     13 N3          1.0958   -0.9432   -3.2682 N.2       1 <0>        -0.2294
     14 C8          2.1801   -0.1869   -3.1511 C.2       1 <0>         0.0779
     15 S1          1.8211    0.6418   -1.6070 S.3       1 <0>         0.0619
     16 C9          3.3525   -0.0645   -4.0435 C.ar      1 <0>         0.0013
     17 C10         3.4230   -0.8194   -5.2155 C.ar      1 <0>        -0.0659
     18 C11         4.5193   -0.7011   -6.0443 C.ar      1 <0>        -0.1021
     19 C12         5.5484    0.1637   -5.7165 C.ar      1 <0>        -0.0889
     20 C13         5.4850    0.9159   -4.5559 C.ar      1 <0>        -0.0336
     21 C14         4.3903    0.8104   -3.7206 C.ar      1 <0>        -0.0860
     22 Cl1         6.7808    1.9987   -4.1534 Cl        1 <0>        -0.0563
     23 N4         -3.6492   -1.5556    0.9819 N.am      1 <0>        -0.7252
     24 C15        -4.2799   -1.7842    2.1509 C.2       1 <0>         0.7096
     25 O2         -4.1220   -1.0231    3.0858 O.2       1 <0>        -0.5580
     26 N5         -5.0856   -2.8564    2.2834 N.am      1 <0>        -0.6834
     27 C16        -5.8187   -3.0395    3.4614 C.ar      1 <0>         0.1564
     28 C17        -5.2769   -2.6638    4.6835 C.ar      1 <0>        -0.1141
     29 C18        -6.0048   -2.8414    5.8438 C.ar      1 <0>        -0.0967
     30 C19        -7.2676   -3.4023    5.7904 C.ar      1 <0>        -0.0899
     31 C20        -7.8078   -3.7822    4.5755 C.ar      1 <0>        -0.0994
     32 C21        -7.0871   -3.6025    3.4111 C.ar      1 <0>        -0.1427
     33 C22        -8.0570   -3.5994    7.0589 C.3       1 <0>        -0.0561
     34 C23        -7.2825   -4.5205    8.0036 C.3       1 <0>        -0.1450
     35 C24        -8.2806   -2.2458    7.7360 C.3       1 <0>        -0.1451
     36 H3         -3.0455    0.8667    3.1336 H         1 <0>         0.0686
     37 H4         -4.3686    1.9499    3.6278 H         1 <0>         0.0526
     38 H5         -3.1091    2.5342    2.5141 H         1 <0>         0.0421
     39 H6         -5.1201    0.3201    1.9056 H         1 <0>         0.0765
     40 H7         -5.2147    1.9932    1.3056 H         1 <0>         0.0594
     41 H8         -5.0416    1.3840   -1.0557 H         1 <0>         0.0627
     42 H9         -3.7835    0.2539   -1.6108 H         1 <0>         0.0568
     43 H10        -5.1061   -0.3275   -0.5711 H         1 <0>         0.0605
     44 H11        -0.3947    0.6615    0.4493 H         1 <0>         0.4325
     45 H12         2.6208   -1.4953   -5.4728 H         1 <0>         0.1454
     46 H13         4.5744   -1.2846   -6.9514 H         1 <0>         0.1451
     47 H14         6.4045    0.2526   -6.3688 H         1 <0>         0.1422
     48 H15         4.3396    1.4005   -2.8175 H         1 <0>         0.1375
     49 H16        -3.7752   -2.1627    0.2360 H         1 <0>         0.4093
     50 H17        -5.1574   -3.5012    1.5623 H         1 <0>         0.4079
     51 H18        -4.2889   -2.2298    4.7263 H         1 <0>         0.1407
     52 H19        -5.5857   -2.5456    6.7942 H         1 <0>         0.1232
     53 H20        -8.7945   -4.2197    4.5371 H         1 <0>         0.1245
     54 H21        -7.5097   -3.8991    2.4625 H         1 <0>         0.1237
     55 H22        -9.0205   -4.0502    6.8209 H         1 <0>         0.0766
     56 H23        -7.8534   -4.6631    8.9211 H         1 <0>         0.0579
     57 H24        -7.1232   -5.4849    7.5212 H         1 <0>         0.0556
     58 H25        -6.3190   -4.0698    8.2416 H         1 <0>         0.0566
     59 H26        -8.8324   -1.5896    7.0630 H         1 <0>         0.0557
     60 H27        -8.8516   -2.3884    8.6535 H         1 <0>         0.0578
     61 H28        -7.3171   -1.7950    7.9740 H         1 <0>         0.0568
@<TRIPOS>BOND
     1    1    2 1
     2    1   36 1
     3    1   37 1
     4    1   38 1
     5    2    3 1
     6    2   39 1
     7    2   40 1
     8    3    4 1
     9    3    5 1
    10    3    6 1
    11    5   41 1
    12    5   42 1
    13    5   43 1
    14    6    7 1
    15    6    8 1
    16    6   23 1
    17    8    9 2
    18    8   10 am
    19   10   11 1
    20   10   44 1
    21   11   15 1
    22   11   12 2
    23   12   13 1
    24   13   14 2
    25   14   15 1
    26   14   16 1
    27   16   21 ar
    28   16   17 ar
    29   17   18 ar
    30   17   45 1
    31   18   19 ar
    32   18   46 1
    33   19   20 ar
    34   19   47 1
    35   20   21 ar
    36   20   22 1
    37   21   48 1
    38   23   24 am
    39   23   49 1
    40   24   25 2
    41   24   26 am
    42   26   27 1
    43   26   50 1
    44   27   32 ar
    45   27   28 ar
    46   28   29 ar
    47   28   51 1
    48   29   30 ar
    49   29   52 1
    50   30   31 ar
    51   30   33 1
    52   31   32 ar
    53   31   53 1
    54   32   54 1
    55   33   34 1
    56   33   35 1
    57   33   55 1
    58   34   56 1
    59   34   57 1
    60   34   58 1
    61   35   59 1
    62   35   60 1
    63   35   61 1
@<TRIPOS>MOLECULE
ZINC26123674
   71    75     0     0     0
SMALL
USER_CHARGES
(2S)-N-(1-adamantyl)-2-[[4-amino-5-[(4-tert-butylphenoxy)methyl]-1,2,4-triazol-3-yl]sulfanyl]propanamide
@<TRIPOS>ATOM
      1 C1         -0.0127    1.0858    0.0080 C.3       1 <0>        -0.1495
      2 C2         -0.7288    1.5792    1.2668 C.3       1 <0>        -0.1114
      3 H1         -0.8480    2.6629    1.1203 H         1 <0>         0.1245
      4 C3         -2.1427    1.0576    1.2775 C.2       1 <0>         0.5362
      5 O1         -2.4267    0.0892    1.9502 O.2       1 <0>        -0.5239
      6 N1         -3.0915    1.6672    0.5395 N.am      1 <0>        -0.7271
      7 C4         -4.4659    1.1601    0.5499 C.3       1 <0>         0.1897
      8 C5         -5.0174    1.2110    1.9761 C.3       1 <0>        -0.1237
      9 C6         -6.4528    0.6814    1.9870 C.3       1 <0>        -0.0825
     10 C7         -7.3226    1.5466    1.0727 C.3       1 <0>        -0.1122
     11 C8         -6.7710    1.4957   -0.3535 C.3       1 <0>        -0.0806
     12 C9         -5.3356    2.0253   -0.3644 C.3       1 <0>        -0.1152
     13 C10        -6.7850    0.0501   -0.8545 C.3       1 <0>        -0.1122
     14 C11        -5.9153   -0.8150    0.0598 C.3       1 <0>        -0.0826
     15 C12        -6.4669   -0.7642    1.4860 C.3       1 <0>        -0.1103
     16 C13        -4.4799   -0.2854    0.0489 C.3       1 <0>        -0.1236
     17 S1          0.1466    0.9796    2.7332 S.3       1 <0>         0.0915
     18 C14         1.6745    1.8378    2.5496 C.2       1 <0>         0.1245
     19 N2          1.9965    2.6594    1.5775 N.2       1 <0>        -0.2768
     20 N3          3.1871    3.1073    1.7609 N.2       1 <0>        -0.2441
     21 C15         3.6949    2.5967    2.8468 C.2       1 <0>         0.1496
     22 N4          2.7497    1.7697    3.3883 N.pl3     1 <0>        -0.2008
     23 N5          2.8589    1.0293    4.5310 N.3       1 <0>        -0.7619
     24 C16         5.0691    2.8672    3.4030 C.3       1 <0>         0.1557
     25 O2          5.9956    1.9222    2.8640 O.3       1 <0>        -0.3098
     26 C17         7.2893    2.0279    3.2668 C.ar      1 <0>         0.1233
     27 C18         7.6603    3.0243    4.1580 C.ar      1 <0>        -0.2060
     28 C19         8.9748    3.1257    4.5707 C.ar      1 <0>        -0.0800
     29 C20         9.9226    2.2430    4.0868 C.ar      1 <0>        -0.1028
     30 C21         9.5564    1.2526    3.1942 C.ar      1 <0>        -0.0746
     31 C22         8.2421    1.1431    2.7831 C.ar      1 <0>        -0.1438
     32 C23        11.3571    2.3601    4.5335 C.3       1 <0>        -0.0261
     33 C24        12.2513    2.6087    3.3172 C.3       1 <0>        -0.1417
     34 C25        11.4925    3.5276    5.5131 C.3       1 <0>        -0.1473
     35 C26        11.7839    1.0631    5.2237 C.3       1 <0>        -0.1412
     36 H2          1.0193    1.4665    0.0002 H         1 <0>         0.0914
     37 H3         -0.5447    1.4502   -0.8831 H         1 <0>         0.0722
     38 H4          0.0022   -0.0141    0.0019 H         1 <0>         0.0682
     39 H5         -2.8339    2.5455   -0.0706 H         1 <0>         0.4224
     40 H6         -4.3921    0.5890    2.6334 H         1 <0>         0.0856
     41 H7         -5.0073    2.2503    2.3363 H         1 <0>         0.0599
     42 H8         -6.8493    0.7179    3.0124 H         1 <0>         0.0723
     43 H9         -8.3546    1.1658    1.0806 H         1 <0>         0.0652
     44 H10        -7.3125    2.5859    1.4329 H         1 <0>         0.0627
     45 H11        -7.3963    2.1177   -1.0108 H         1 <0>         0.0755
     46 H12        -5.3254    3.0646   -0.0041 H         1 <0>         0.0696
     47 H13        -4.9390    1.9888   -1.3898 H         1 <0>         0.0698
     48 H14        -7.8170   -0.3307   -0.8467 H         1 <0>         0.0652
     49 H15        -6.3884    0.0135   -1.8799 H         1 <0>         0.0628
     50 H16        -5.9254   -1.8543   -0.3004 H         1 <0>         0.0723
     51 H17        -5.8416   -1.3862    2.1434 H         1 <0>         0.0649
     52 H18        -7.4989   -1.1449    1.4938 H         1 <0>         0.0630
     53 H19        -4.0833   -0.3219   -0.9765 H         1 <0>         0.0601
     54 H20        -3.8545   -0.9074    0.7062 H         1 <0>         0.0858
     55 H21         3.7864    1.0628    5.1215 H         1 <0>         0.4492
     56 H22         2.0194    0.3996    4.8607 H         1 <0>         0.4512
     57 H23         5.3820    3.8853    3.1281 H         1 <0>         0.1053
     58 H24         5.0460    2.7740    4.4988 H         1 <0>         0.0806
     59 H25         6.9213    3.7171    4.5325 H         1 <0>         0.1271
     60 H26         9.2632    3.8980    5.2684 H         1 <0>         0.1306
     61 H27        10.2986    0.5643    2.8177 H         1 <0>         0.1290
     62 H28         7.9565    0.3691    2.0862 H         1 <0>         0.1301
     63 H29        13.2984    2.6942    3.6433 H         1 <0>         0.0595
     64 H30        11.9445    3.5413    2.8210 H         1 <0>         0.0572
     65 H31        12.1539    1.7694    2.6129 H         1 <0>         0.0574
     66 H32        12.5396    3.6131    5.8392 H         1 <0>         0.0598
     67 H33        10.8496    3.3489    6.3876 H         1 <0>         0.0586
     68 H34        11.1857    4.4601    5.0168 H         1 <0>         0.0592
     69 H35        12.8310    1.1487    5.5497 H         1 <0>         0.0595
     70 H36        11.6866    0.2238    4.5194 H         1 <0>         0.0573
     71 H37        11.1410    0.8844    6.0982 H         1 <0>         0.0564
@<TRIPOS>BOND
     1    1    2 1
     2    1   36 1
     3    1   37 1
     4    1   38 1
     5    2    3 1
     6    2    4 1
     7    2   17 1
     8    4    5 2
     9    4    6 am
    10    6    7 1
    11    6   39 1
    12    7   12 1
    13    7   16 1
    14    7    8 1
    15    8    9 1
    16    8   40 1
    17    8   41 1
    18    9   15 1
    19    9   10 1
    20    9   42 1
    21   10   11 1
    22   10   43 1
    23   10   44 1
    24   11   12 1
    25   11   13 1
    26   11   45 1
    27   12   46 1
    28   12   47 1
    29   13   14 1
    30   13   48 1
    31   13   49 1
    32   14   15 1
    33   14   16 1
    34   14   50 1
    35   15   51 1
    36   15   52 1
    37   16   53 1
    38   16   54 1
    39   17   18 1
    40   18   22 1
    41   18   19 2
    42   19   20 1
    43   20   21 2
    44   21   22 1
    45   21   24 1
    46   22   23 1
    47   23   55 1
    48   23   56 1
    49   24   25 1
    50   24   57 1
    51   24   58 1
    52   25   26 1
    53   26   31 ar
    54   26   27 ar
    55   27   28 ar
    56   27   59 1
    57   28   29 ar
    58   28   60 1
    59   29   30 ar
    60   29   32 1
    61   30   31 ar
    62   30   61 1
    63   31   62 1
    64   32   33 1
    65   32   34 1
    66   32   35 1
    67   33   63 1
    68   33   64 1
    69   33   65 1
    70   34   66 1
    71   34   67 1
    72   34   68 1
    73   35   69 1
    74   35   70 1
    75   35   71 1
@<TRIPOS>MOLECULE
ZINC40688827
   56    59     0     0     0
SMALL
USER_CHARGES

@<TRIPOS>ATOM
      1 C1         -0.4869    0.8250    0.8497 C.3       1 <0>        -0.1177
      2 C2          0.3426   -0.3769    0.4779 C.ar      1 <0>        -0.1124
      3 C3          0.2071   -0.9506   -0.7713 C.ar      1 <0>        -0.0709
      4 C4          0.9674   -2.0532   -1.1138 C.ar      1 <0>        -0.0975
      5 C5          1.8672   -2.5859   -0.2067 C.ar      1 <0>        -0.0002
      6 C6          2.0078   -2.0162    1.0445 C.ar      1 <0>        -0.1059
      7 C7          1.2483   -0.9052    1.3891 C.ar      1 <0>         0.1915
      8 N1          1.3912   -0.3236    2.6517 N.pl3     1 <0>        -0.6471
      9 C8          1.7615   -1.1059    3.7395 C.ar      1 <0>         0.3808
     10 C9          2.0263   -0.5179    4.9793 C.ar      1 <0>         0.0652
     11 C10         2.3937   -1.3485    6.0368 C.ar      1 <0>         0.3123
     12 N2          2.4779   -2.6591    5.8279 N.ar      1 <0>        -0.5480
     13 C11         2.2199   -3.1746    4.6432 C.ar      1 <0>         0.3172
     14 N3          1.8640   -2.4267    3.6182 N.ar      1 <0>        -0.5395
     15 O1          2.6618   -0.8277    7.2603 O.3       1 <0>        -0.2421
     16 C12         2.9160   -1.6907    8.2798 C.ar      1 <0>         0.0535
     17 C13         4.1492   -2.3202    8.3645 C.ar      1 <0>        -0.0658
     18 C14         4.4075   -3.1966    9.4003 C.ar      1 <0>        -0.1386
     19 C15         3.4338   -3.4472   10.3559 C.ar      1 <0>         0.1356
     20 C16         2.2005   -2.8182   10.2709 C.ar      1 <0>        -0.1970
     21 C17         1.9440   -1.9375    9.2384 C.ar      1 <0>        -0.0729
     22 O2          3.6881   -4.3100   11.3756 O.3       1 <0>        -0.3143
     23 C18         2.6399   -4.5209   12.3237 C.3       1 <0>         0.0249
     24 N4          1.9255    0.8707    5.1548 N.pl3     1 <0>        -0.8644
     25 Cl1         2.8195   -3.9710   -0.6409 Cl        1 <0>        -0.0552
     26 C19         0.8160   -2.6769   -2.4773 C.3       1 <0>         0.0927
     27 H1          1.4490   -3.5617   -2.5444 H         1 <0>         0.1361
     28 C20        -0.5892   -3.0618   -2.6875 C.1       1 <0>         0.2100
     29 N5         -1.6736   -3.3588   -2.8497 N.1       1 <0>        -0.4087
     30 C21         1.2279   -1.6833   -3.5328 C.ar      1 <0>        -0.0768
     31 C22         0.4367   -0.5789   -3.7884 C.ar      1 <0>        -0.0951
     32 C23         0.8141    0.3328   -4.7563 C.ar      1 <0>        -0.1054
     33 C24         1.9838    0.1399   -5.4694 C.ar      1 <0>        -0.0284
     34 C25         2.7753   -0.9656   -5.2131 C.ar      1 <0>        -0.1055
     35 C26         2.3998   -1.8736   -4.2410 C.ar      1 <0>        -0.0854
     36 Cl2         2.4581    1.2842   -6.6856 Cl        1 <0>        -0.0647
     37 H2          0.0455    1.7343    0.5706 H         1 <0>         0.0760
     38 H3         -1.4401    0.7858    0.3225 H         1 <0>         0.0757
     39 H4         -0.6660    0.8244    1.9249 H         1 <0>         0.0651
     40 H5         -0.4940   -0.5374   -1.4813 H         1 <0>         0.1350
     41 H6          2.7098   -2.4318    1.7522 H         1 <0>         0.1580
     42 H7          1.2320    0.6261    2.7690 H         1 <0>         0.4180
     43 H8          2.2985   -4.2434    4.5091 H         1 <0>         0.2027
     44 H9          4.9073   -2.1253    7.6203 H         1 <0>         0.1332
     45 H10         5.3675   -3.6869    9.4661 H         1 <0>         0.1386
     46 H11         1.4422   -3.0137   11.0148 H         1 <0>         0.1358
     47 H12         0.9854   -1.4441    9.1749 H         1 <0>         0.1310
     48 H13         2.3834   -3.5739   12.7984 H         1 <0>         0.0573
     49 H14         1.7636   -4.9207   11.8134 H         1 <0>         0.0576
     50 H15         2.9733   -5.2291   13.0823 H         1 <0>         0.1030
     51 H16         1.6690    1.4364    4.4097 H         1 <0>         0.3948
     52 H17         2.1123    1.2649    6.0212 H         1 <0>         0.4108
     53 H18        -0.4766   -0.4286   -3.2319 H         1 <0>         0.1307
     54 H19         0.1957    1.1954   -4.9561 H         1 <0>         0.1371
     55 H20         3.6884   -1.1168   -5.7696 H         1 <0>         0.1393
     56 H21         3.0199   -2.7341   -4.0376 H         1 <0>         0.1400
@<TRIPOS>BOND
     1    1    2 1
     2    1   37 1
     3    1   38 1
     4    1   39 1
     5    2    7 ar
     6    2    3 ar
     7    3    4 ar
     8    3   40 1
     9    4    5 ar
    10    4   26 1
    11    5    6 ar
    12    5   25 1
    13    6    7 ar
    14    6   41 1
    15    7    8 1
    16    8    9 1
    17    8   42 1
    18    9   14 ar
    19    9   10 ar
    20   10   11 ar
    21   10   24 1
    22   11   12 ar
    23   11   15 1
    24   12   13 ar
    25   13   14 ar
    26   13   43 1
    27   15   16 1
    28   16   21 ar
    29   16   17 ar
    30   17   18 ar
    31   17   44 1
    32   18   19 ar
    33   18   45 1
    34   19   20 ar
    35   19   22 1
    36   20   21 ar
    37   20   46 1
    38   21   47 1
    39   22   23 1
    40   23   48 1
    41   23   49 1
    42   23   50 1
    43   24   51 1
    44   24   52 1
    45   26   27 1
    46   26   28 1
    47   26   30 1
    48   28   29 3
    49   30   35 ar
    50   30   31 ar
    51   31   32 ar
    52   31   53 1
    53   32   33 ar
    54   32   54 1
    55   33   34 ar
    56   33   36 1
    57   34   35 ar
    58   34   55 1
    59   35   56 1
@<TRIPOS>MOLECULE
ZINC59310271
   58    63     0     0     0
SMALL
USER_CHARGES

@<TRIPOS>ATOM
      1 C1          0.0608    1.5168    0.0110 C.ar      1 <0>        -0.1101
      2 C2          1.2520    2.2182    0.0178 C.ar      1 <0>        -0.1216
      3 C3          2.4550    1.5375    0.0026 C.ar      1 <0>        -0.0998
      4 C4          2.4668    0.1554   -0.0190 C.ar      1 <0>        -0.1133
      5 C5          1.2757   -0.5461   -0.0249 C.ar      1 <0>        -0.0998
      6 C6          0.0726    0.1347   -0.0111 C.ar      1 <0>        -0.1216
      7 C7          3.7783   -0.5868   -0.0365 C.3       1 <0>         0.1623
      8 N1          4.2097   -0.8487    1.3388 N.am      1 <0>        -0.7202
      9 C8          5.3640   -1.5051    1.5696 C.2       1 <0>         0.5362
     10 O1          6.0456   -1.8788    0.6387 O.2       1 <0>        -0.5179
     11 C9          5.8077   -1.7745    2.9843 C.3       1 <0>        -0.1630
     12 S1          7.3863   -2.6678    2.9632 S.3       1 <0>         0.1136
     13 C10         7.7651   -2.9043    4.6676 C.2       1 <0>         0.2175
     14 N2          8.8528   -3.5200    5.1438 N.2       1 <0>        -0.5221
     15 C11         8.8210   -3.5202    6.4598 C.2       1 <0>         0.5611
     16 N3          7.6912   -2.8928    6.8496 N.pl3     1 <0>        -0.5035
     17 N4          7.0289   -2.5002    5.6753 N.2       1 <0>        -0.3232
     18 N5          9.7771   -4.0678    7.2964 N.pl3     1 <0>        -0.5563
     19 N6         10.9071   -4.6936    6.7537 N.2       1 <0>        -0.2021
     20 C12        11.7918   -5.2004    7.5278 C.2       1 <0>         0.1211
     21 C13        12.9798   -5.8582    6.9573 C.ar      1 <0>        -0.0561
     22 C14        14.0598   -6.3295    7.8429 C.ar      1 <0>        -0.0920
     23 C15        15.1264   -6.9196    7.3431 C.ar      1 <0>        -0.1030
     24 C16        15.2406   -7.1098    5.8872 C.ar      1 <0>        -0.0352
     25 C17        16.4199   -7.7661    5.2977 C.ar      1 <0>        -0.1081
     26 C18        16.5031   -7.9276    3.9911 C.ar      1 <0>        -0.0945
     27 C19        15.4169   -7.4522    3.1174 C.ar      1 <0>        -0.0506
     28 C20        15.4883   -7.6225    1.6563 C.ar      1 <0>        -0.1043
     29 C21        14.5017   -7.1877    0.8993 C.ar      1 <0>        -0.1136
     30 C22        13.3271   -6.5323    1.5021 C.ar      1 <0>        -0.0979
     31 C23        13.2604   -6.3789    2.8066 C.ar      1 <0>        -0.0498
     32 C24        14.3683   -6.8680    3.6469 C.ar      1 <0>        -0.0318
     33 C25        14.2754   -6.6878    5.1053 C.ar      1 <0>        -0.0401
     34 C26        13.0767   -6.0312    5.6571 C.ar      1 <0>         0.0115
     35 C27        12.0171   -5.5785    4.7435 C.ar      1 <0>        -0.1373
     36 C28        12.1042   -5.7304    3.4431 C.ar      1 <0>        -0.0913
     37 H1         -0.8791    2.0486    0.0274 H         1 <0>         0.1242
     38 H2          1.2427    3.2980    0.0347 H         1 <0>         0.1251
     39 H3          3.3856    2.0855    0.0072 H         1 <0>         0.1249
     40 H4          1.2849   -1.6259   -0.0421 H         1 <0>         0.1249
     41 H5         -0.8580   -0.4133   -0.0161 H         1 <0>         0.1251
     42 H6          3.6538   -1.5321   -0.5646 H         1 <0>         0.0807
     43 H7          4.5305    0.0168   -0.5445 H         1 <0>         0.0807
     44 H8          3.6645   -0.5498    2.0833 H         1 <0>         0.4048
     45 H9          5.9322   -0.8292    3.5124 H         1 <0>         0.1226
     46 H10         5.0555   -2.3781    3.4923 H         1 <0>         0.1226
     47 H11         9.6651   -4.0186    8.2586 H         1 <0>         0.3998
     48 H12        11.6671   -5.1456    8.5992 H         1 <0>         0.1281
     49 H13        13.9761   -6.1897    8.9105 H         1 <0>         0.1340
     50 H14        15.9138   -7.2619    7.9982 H         1 <0>         0.1364
     51 H15        17.2180   -8.1153    5.9360 H         1 <0>         0.1338
     52 H16        17.3691   -8.4089    3.5613 H         1 <0>         0.1331
     53 H17        16.3460   -8.1014    1.2074 H         1 <0>         0.1302
     54 H18        14.5542   -7.3122   -0.1722 H         1 <0>         0.1298
     55 H19        12.5230   -6.1786    0.8738 H         1 <0>         0.1328
     56 H20        11.1436   -5.0950    5.1554 H         1 <0>         0.1932
     57 H21        11.2969   -5.3743    2.8204 H         1 <0>         0.1312
     58 H22         7.3964   -2.7405    7.7611 H         1 <0>         0.4389
@<TRIPOS>BOND
     1    1    6 ar
     2    1    2 ar
     3    1   37 1
     4    2    3 ar
     5    2   38 1
     6    3    4 ar
     7    3   39 1
     8    4    5 ar
     9    4    7 1
    10    5    6 ar
    11    5   40 1
    12    6   41 1
    13    7    8 1
    14    7   42 1
    15    7   43 1
    16    8    9 am
    17    8   44 1
    18    9   10 2
    19    9   11 1
    20   11   12 1
    21   11   45 1
    22   11   46 1
    23   12   13 1
    24   13   17 2
    25   13   14 1
    26   14   15 2
    27   15   16 1
    28   15   18 1
    29   16   17 1
    30   16   58 1
    31   18   19 1
    32   18   47 1
    33   19   20 2
    34   20   21 1
    35   20   48 1
    36   21   34 ar
    37   21   22 ar
    38   22   23 ar
    39   22   49 1
    40   23   24 ar
    41   23   50 1
    42   24   33 ar
    43   24   25 ar
    44   25   26 ar
    45   25   51 1
    46   26   27 ar
    47   26   52 1
    48   27   32 ar
    49   27   28 ar
    50   28   29 ar
    51   28   53 1
    52   29   30 ar
    53   29   54 1
    54   30   31 ar
    55   30   55 1
    56   31   36 ar
    57   31   32 ar
    58   32   33 ar
    59   33   34 ar
    60   34   35 ar
    61   35   36 ar
    62   35   56 1
    63   36   57 1
@<TRIPOS>MOLECULE
ZINC09429121
   69    71     0     0     0
SMALL
USER_CHARGES
2-(1-acetyl-2-methyl-indolin-5-yl)sulfonylamino-N-cyclooctyl-3-methyl-butanamide
@<TRIPOS>ATOM
      1 C1          2.8858   -5.2543    1.7268 C.3       1 <0>        -0.1639
      2 C2          1.5372   -4.9868    2.3982 C.3       1 <0>         0.1294
      3 H1          1.0721   -5.9257    2.6985 H         1 <0>         0.0958
      4 C3          0.6111   -4.2136    1.4453 C.3       1 <0>        -0.0853
      5 C4          0.3216   -2.9158    2.1654 C.ar      1 <0>        -0.1533
      6 C5         -0.4543   -1.8316    1.8021 C.ar      1 <0>         0.0250
      7 C6         -0.5606   -0.7407    2.6443 C.ar      1 <0>        -0.7036
      8 C7          0.1023   -0.7415    3.8580 C.ar      1 <0>         0.0182
      9 C8          0.8721   -1.8236    4.2275 C.ar      1 <0>        -0.1834
     10 C9          0.9894   -2.9266    3.3794 C.ar      1 <0>         0.2069
     11 N1          1.7106   -4.1109    3.5602 N.am      1 <0>        -0.5526
     12 C10         2.4558   -4.4039    4.6443 C.2       1 <0>         0.5252
     13 O1          3.0463   -5.4615    4.7065 O.2       1 <0>        -0.5080
     14 C11         2.5555   -3.4173    5.7791 C.3       1 <0>        -0.1849
     15 S1         -1.5441    0.6443    2.1759 S.o2      1 <0>         2.6950
     16 O2         -1.8401    1.3547    3.3704 O.2       1 <0>        -0.9528
     17 O3         -2.5585    0.1488    1.3130 O.2       1 <0>        -0.9432
     18 N2         -0.5866    1.6372    1.2596 N.pl3     1 <0>        -1.0911
     19 C12        -0.0928    1.1814   -0.0422 C.3       1 <0>         0.1424
     20 H2         -0.0725    0.0917   -0.0618 H         1 <0>         0.1074
     21 C13         1.3203    1.7220   -0.2694 C.3       1 <0>        -0.0943
     22 C14         1.2976    3.2506   -0.2080 C.3       1 <0>        -0.1534
     23 C15         2.2537    1.1817    0.8159 C.3       1 <0>        -0.1500
     24 C16        -1.0049    1.6865   -1.1303 C.2       1 <0>         0.5017
     25 O4         -1.9721    2.3608   -0.8464 O.2       1 <0>        -0.5131
     26 N3         -0.7457    1.3888   -2.4190 N.am      1 <0>        -0.7275
     27 C17        -1.6323    1.8799   -3.4768 C.3       1 <0>         0.1219
     28 C18        -2.8093    0.9165   -3.6439 C.3       1 <0>        -0.1301
     29 C19        -3.9211    1.6032   -4.4395 C.3       1 <0>        -0.1235
     30 C20        -4.1126    3.0303   -3.9227 C.3       1 <0>        -0.1347
     31 C21        -3.6874    4.0257   -5.0041 C.3       1 <0>        -0.1204
     32 C22        -2.1599    4.0829   -5.0710 C.3       1 <0>        -0.1311
     33 C23        -1.6333    2.8364   -5.7848 C.3       1 <0>        -0.1248
     34 C24        -0.8560    1.9696   -4.7923 C.3       1 <0>        -0.1260
     35 H3          3.3557   -4.3063    1.4650 H         1 <0>         0.0606
     36 H4          3.5311   -5.8024    2.4133 H         1 <0>         0.0750
     37 H5          2.7312   -5.8448    0.8238 H         1 <0>         0.0772
     38 H6         -0.3115   -4.7694    1.2777 H         1 <0>         0.0976
     39 H7          1.1141   -4.0189    0.4982 H         1 <0>         0.0989
     40 H8         -0.9752   -1.8347    0.8561 H         1 <0>         0.1414
     41 H9          0.0163    0.1085    4.5188 H         1 <0>         0.1497
     42 H10         1.3870   -1.8181    5.1768 H         1 <0>         0.1490
     43 H11         1.5617   -3.2296    6.1857 H         1 <0>         0.0998
     44 H12         3.1965   -3.8258    6.5604 H         1 <0>         0.1022
     45 H13         2.9804   -2.4831    5.4121 H         1 <0>         0.0994
     46 H14        -0.3527    2.5206    1.5848 H         1 <0>         0.4236
     47 H15         1.6784    1.4030   -1.2482 H         1 <0>         0.0888
     48 H16         0.9396    3.5696    0.7709 H         1 <0>         0.0607
     49 H17         2.3044    3.6357   -0.3698 H         1 <0>         0.0657
     50 H18         0.6327    3.6354   -0.9812 H         1 <0>         0.0595
     51 H19         1.8509    1.4297    1.7980 H         1 <0>         0.0625
     52 H20         2.3349    0.0991    0.7194 H         1 <0>         0.0577
     53 H21         3.2402    1.6315    0.7037 H         1 <0>         0.0642
     54 H22         0.0279    0.8495   -2.6461 H         1 <0>         0.3967
     55 H23        -2.0066    2.8676   -3.2078 H         1 <0>         0.1160
     56 H24        -2.4772    0.0261   -4.1777 H         1 <0>         0.0621
     57 H25        -3.1878    0.6316   -2.6622 H         1 <0>         0.0693
     58 H26        -4.8503    1.0460   -4.3204 H         1 <0>         0.0610
     59 H27        -3.6478    1.6325   -5.4943 H         1 <0>         0.0727
     60 H28        -3.5024    3.1791   -3.0318 H         1 <0>         0.0800
     61 H29        -5.1621    3.1893   -3.6749 H         1 <0>         0.0597
     62 H30        -4.0779    5.0142   -4.7620 H         1 <0>         0.0601
     63 H31        -4.0817    3.7052   -5.9684 H         1 <0>         0.0636
     64 H32        -1.7532    4.1220   -4.0605 H         1 <0>         0.0707
     65 H33        -1.8535    4.9730   -5.6206 H         1 <0>         0.0604
     66 H34        -0.9741    3.1357   -6.5996 H         1 <0>         0.0638
     67 H35        -2.4713    2.2666   -6.1861 H         1 <0>         0.0772
     68 H36         0.1212    2.4158   -4.6078 H         1 <0>         0.0674
     69 H37        -0.7266    0.9698   -5.2067 H         1 <0>         0.0680
@<TRIPOS>BOND
     1    1    2 1
     2    1   35 1
     3    1   36 1
     4    1   37 1
     5    2    3 1
     6    2   11 1
     7    2    4 1
     8    4    5 1
     9    4   38 1
    10    4   39 1
    11    5   10 ar
    12    5    6 ar
    13    6    7 ar
    14    6   40 1
    15    7    8 ar
    16    7   15 1
    17    8    9 ar
    18    8   41 1
    19    9   10 ar
    20    9   42 1
    21   10   11 1
    22   11   12 am
    23   12   13 2
    24   12   14 1
    25   14   43 1
    26   14   44 1
    27   14   45 1
    28   15   16 2
    29   15   17 2
    30   15   18 1
    31   18   19 1
    32   18   46 1
    33   19   20 1
    34   19   21 1
    35   19   24 1
    36   21   22 1
    37   21   23 1
    38   21   47 1
    39   22   48 1
    40   22   49 1
    41   22   50 1
    42   23   51 1
    43   23   52 1
    44   23   53 1
    45   24   25 2
    46   24   26 am
    47   26   27 1
    48   26   54 1
    49   27   34 1
    50   27   28 1
    51   27   55 1
    52   28   29 1
    53   28   56 1
    54   28   57 1
    55   29   30 1
    56   29   58 1
    57   29   59 1
    58   30   31 1
    59   30   60 1
    60   30   61 1
    61   31   32 1
    62   31   62 1
    63   31   63 1
    64   32   33 1
    65   32   64 1
    66   32   65 1
    67   33   34 1
    68   33   66 1
    69   33   67 1
    70   34   68 1
    71   34   69 1
@<TRIPOS>MOLECULE
ZINC09465871
   39    42     0     0     0
SMALL
USER_CHARGES
3-[[5-(4-bromophenyl)-1,3,4-oxadiazol-2-yl]methylsulfanyl]-5-(3-chlorophenyl)-1,2,4-triazol-4-amine
@<TRIPOS>ATOM
      1 C1         -1.0399   -6.8963    4.4627 C.ar      1 <0>        -0.0944
      2 C2         -0.8208   -5.7077    3.7970 C.ar      1 <0>        -0.1180
      3 C3         -0.3594   -5.7232    2.4800 C.ar      1 <0>        -0.0062
      4 C4         -0.1277   -6.9430    1.8422 C.ar      1 <0>        -0.0641
      5 C5         -0.3457   -8.1253    2.5208 C.ar      1 <0>        -0.0281
      6 C6         -0.8032   -8.1022    3.8278 C.ar      1 <0>        -0.0930
      7 Cl1        -0.0516   -9.6437    1.7325 Cl        1 <0>        -0.0501
      8 C7         -0.1227   -4.4531    1.7613 C.2       1 <0>         0.1959
      9 N1          0.0014   -4.3026    0.4633 N.2       1 <0>        -0.2432
     10 N2          0.1933   -3.0635    0.1817 N.2       1 <0>        -0.2802
     11 C8          0.2130   -2.3480    1.2841 C.2       1 <0>         0.1856
     12 N3          0.0090   -3.2058    2.3269 N.pl3     1 <0>        -0.3004
     13 N4         -0.0521   -2.8911    3.6548 N.3       1 <0>        -0.5852
     14 S1          0.4508   -0.6056    1.3952 S.3       1 <0>         0.0860
     15 C9          0.6467   -0.2027   -0.3584 C.3       1 <0>        -0.0302
     16 C10         0.8687    1.2800   -0.5115 C.2       1 <0>         0.1713
     17 N5          2.0207    1.8903   -0.5078 N.2       1 <0>        -0.2484
     18 N6          1.8383    3.1545   -0.6624 N.2       1 <0>        -0.2653
     19 C11         0.5528    3.3960   -0.7709 C.2       1 <0>         0.2197
     20 O1         -0.0850    2.2118   -0.6822 O.3       1 <0>        -0.2094
     21 C12        -0.0778    4.7197   -0.9600 C.ar      1 <0>        -0.0154
     22 C13        -1.4654    4.8261   -1.0651 C.ar      1 <0>        -0.0747
     23 C14        -2.0483    6.0644   -1.2367 C.ar      1 <0>        -0.0914
     24 C15        -1.2590    7.1992   -1.3154 C.ar      1 <0>        -0.0670
     25 C16         0.1184    7.0995   -1.2171 C.ar      1 <0>        -0.0905
     26 C17         0.7125    5.8673   -1.0400 C.ar      1 <0>        -0.0571
     27 Br1        -2.0657    8.8923   -1.5573 Br        1 <0>        -0.0331
     28 H1         -1.3973   -6.8851    5.4818 H         1 <0>         0.1442
     29 H2         -1.0058   -4.7670    4.2944 H         1 <0>         0.1213
     30 H3          0.2248   -6.9617    0.8215 H         1 <0>         0.1512
     31 H4         -0.9763   -9.0296    4.3534 H         1 <0>         0.1436
     32 H5         -1.0078   -2.7661    3.9532 H         1 <0>         0.3710
     33 H6          0.4127   -3.5906    4.2140 H         1 <0>         0.3816
     34 H7         -0.2531   -0.4933   -0.9007 H         1 <0>         0.1356
     35 H8          1.5039   -0.7419   -0.7616 H         1 <0>         0.1493
     36 H9         -2.0819    3.9411   -1.0081 H         1 <0>         0.1434
     37 H10        -3.1223    6.1486   -1.3137 H         1 <0>         0.1457
     38 H11         0.7289    7.9882   -1.2795 H         1 <0>         0.1480
     39 H12         1.7871    5.7907   -0.9638 H         1 <0>         0.1520
@<TRIPOS>BOND
     1    1    6 ar
     2    1    2 ar
     3    1   28 1
     4    2    3 ar
     5    2   29 1
     6    3    4 ar
     7    3    8 1
     8    4    5 ar
     9    4   30 1
    10    5    6 ar
    11    5    7 1
    12    6   31 1
    13    8   12 1
    14    8    9 2
    15    9   10 1
    16   10   11 2
    17   11   12 1
    18   11   14 1
    19   12   13 1
    20   13   32 1
    21   13   33 1
    22   14   15 1
    23   15   16 1
    24   15   34 1
    25   15   35 1
    26   16   20 1
    27   16   17 2
    28   17   18 1
    29   18   19 2
    30   19   20 1
    31   19   21 1
    32   21   26 ar
    33   21   22 ar
    34   22   23 ar
    35   22   36 1
    36   23   24 ar
    37   23   37 1
    38   24   25 ar
    39   24   27 1
    40   25   26 ar
    41   25   38 1
    42   26   39 1
@<TRIPOS>MOLECULE
ZINC22878051
   46    49     0     0     0
SMALL
USER_CHARGES
N-[2-[[5-[1-(difluoromethyl)imidazol-2-yl]-4-methyl-thiazol-2-yl]carbamoyl]phenyl]thiophene-2-carboxamide
@<TRIPOS>ATOM
      1 C1          3.8690   -1.8541   -0.0300 C.3       1 <0>        -0.1025
      2 C2          4.3989   -0.4434   -0.0337 C.2       1 <0>         0.1629
      3 C3          3.5452    0.6320   -0.0224 C.2       1 <0>        -0.1890
      4 S1          4.7155    1.9824   -0.0420 S.3       1 <0>         0.1103
      5 C4          6.1648    1.0260   -0.0520 C.2       1 <0>         0.3174
      6 N1          5.6902   -0.2071   -0.0482 N.2       1 <0>        -0.5135
      7 N2          7.4850    1.4489   -0.0660 N.am      1 <0>        -0.6251
      8 C5          8.4827    0.5429   -0.0784 C.2       1 <0>         0.5706
      9 O1          8.2250   -0.6455   -0.0773 O.2       1 <0>        -0.4747
     10 C6          9.8868    0.9927   -0.0932 C.ar      1 <0>        -0.1753
     11 C7         10.1881    2.3525   -0.2044 C.ar      1 <0>        -0.0642
     12 C8         11.5022    2.7668   -0.2124 C.ar      1 <0>        -0.1419
     13 C9         12.5288    1.8404   -0.1216 C.ar      1 <0>        -0.0614
     14 C10        12.2472    0.4934   -0.0165 C.ar      1 <0>        -0.1329
     15 C11        10.9287    0.0573   -0.0015 C.ar      1 <0>         0.2287
     16 N3         10.6424   -1.3005    0.1035 N.am      1 <0>        -0.6745
     17 C12        11.4297   -2.0995    0.8506 C.2       1 <0>         0.6098
     18 O2         12.3330   -1.6193    1.5100 O.2       1 <0>        -0.5122
     19 C13        11.1982   -3.5462    0.8692 C.2       1 <0>        -0.2475
     20 C14        11.8844   -4.5323    1.5613 C.2       1 <0>        -0.0651
     21 C15        11.4534   -5.8252    1.3985 C.2       1 <0>        -0.1806
     22 C16        10.3954   -6.0742    0.5828 C.2       1 <0>        -0.1792
     23 S2          9.9550   -4.4972    0.0131 S.3       1 <0>         0.1594
     24 C17         2.0748    0.6637   -0.0055 C.2       1 <0>         0.3340
     25 N4          1.2798   -0.3869    0.0018 N.2       1 <0>        -0.4594
     26 C18         0.0053    0.0236    0.0167 C.2       1 <0>        -0.0020
     27 C19        -0.0094    1.3708    0.0189 C.2       1 <0>        -0.0366
     28 N5          1.2979    1.7880    0.0049 N.pl3     1 <0>        -0.5162
     29 C20         1.7707    3.1746    0.0018 C.3       1 <0>         0.4670
     30 F1          2.5587    3.4012    1.1354 F         1 <0>        -0.1747
     31 F2          2.5321    3.4050   -1.1490 F         1 <0>        -0.1748
     32 H1          2.7693   -1.8326   -0.0173 H         1 <0>         0.1110
     33 H2          4.2358   -2.3812    0.8631 H         1 <0>         0.0773
     34 H3          4.2151   -2.3781   -0.9331 H         1 <0>         0.0776
     35 H4          7.7182    2.5239   -0.0670 H         1 <0>         0.4547
     36 H5          9.3919    3.0782   -0.2803 H         1 <0>         0.1291
     37 H6         11.7334    3.8186   -0.2946 H         1 <0>         0.1350
     38 H7         13.5558    2.1745   -0.1336 H         1 <0>         0.1355
     39 H8         13.0529   -0.2223    0.0538 H         1 <0>         0.1438
     40 H9          9.7735   -1.7217   -0.4233 H         1 <0>         0.4500
     41 H10        12.7212   -4.2934    2.2010 H         1 <0>         0.1485
     42 H11        11.9492   -6.6352    1.9129 H         1 <0>         0.1427
     43 H12         9.9370   -7.0239    0.3497 H         1 <0>         0.1928
     44 H13        -0.8640   -0.6172    0.0258 H         1 <0>         0.1857
     45 H14        -0.8849    2.0031    0.0257 H         1 <0>         0.1904
     46 H15         0.9382    3.8935    0.0127 H         1 <0>         0.1691
@<TRIPOS>BOND
     1    1    2 1
     2    1   32 1
     3    1   33 1
     4    1   34 1
     5    2    6 1
     6    2    3 2
     7    3    4 1
     8    3   24 1
     9    4    5 1
    10    5    6 2
    11    5    7 1
    12    7    8 am
    13    7   35 1
    14    8    9 2
    15    8   10 1
    16   10   15 ar
    17   10   11 ar
    18   11   12 ar
    19   11   36 1
    20   12   13 ar
    21   12   37 1
    22   13   14 ar
    23   13   38 1
    24   14   15 ar
    25   14   39 1
    26   15   16 1
    27   16   17 am
    28   16   40 1
    29   17   18 2
    30   17   19 1
    31   19   23 1
    32   19   20 2
    33   20   21 1
    34   20   41 1
    35   21   22 2
    36   21   42 1
    37   22   23 1
    38   22   43 1
    39   24   28 1
    40   24   25 2
    41   25   26 1
    42   26   27 2
    43   26   44 1
    44   27   28 1
    45   27   45 1
    46   28   29 1
    47   29   30 1
    48   29   31 1
    49   29   46 1
@<TRIPOS>MOLECULE
ZINC17965741
   54    57     0     0     0
SMALL
USER_CHARGES

@<TRIPOS>ATOM
      1 C1         -0.0085    1.4582    0.0124 C.3       1 <0>         0.0769
      2 N1          0.0024   -0.0067    0.0007 N.am      1 <0>        -0.6004
      3 C2          0.0243   -0.7493    1.2633 C.3       1 <0>         0.0983
      4 C3         -1.3888   -1.0146    1.7146 C.2       1 <0>         0.4973
      5 O1         -2.3224   -0.6221    1.0472 O.2       1 <0>        -0.5063
      6 N2         -1.6152   -1.6881    2.8599 N.am      1 <0>        -0.6735
      7 C4         -2.9239   -1.8507    3.3292 C.ar      1 <0>         0.1482
      8 C5         -3.1799   -1.8384    4.6939 C.ar      1 <0>        -0.1321
      9 C6         -4.4721   -1.9991    5.1544 C.ar      1 <0>        -0.0914
     10 C7         -5.5112   -2.1721    4.2569 C.ar      1 <0>        -0.0489
     11 C8         -5.2587   -2.1847    2.8964 C.ar      1 <0>        -0.0913
     12 C9         -3.9692   -2.0187    2.4306 C.ar      1 <0>        -0.1077
     13 Cl1        -7.1341   -2.3744    4.8390 Cl        1 <0>        -0.0682
     14 C10        -0.0077   -0.6713   -1.1718 C.2       1 <0>         0.5224
     15 O2          0.0014   -1.8840   -1.1816 O.2       1 <0>        -0.5380
     16 C11        -0.0302    0.0925   -2.4707 C.3       1 <0>        -0.1214
     17 C12        -0.0378   -0.8924   -3.6415 C.3       1 <0>        -0.0603
     18 C13        -0.0604   -0.1286   -4.9404 C.2       1 <0>         0.4115
     19 N3         -0.0760   -0.8102   -6.1147 N.am      1 <0>        -0.6346
     20 H1         -0.0725   -1.7801   -6.1011 H         1 <0>         0.4227
     21 C14        -0.0967   -0.1676   -7.2973 C.2       1 <0>         0.5556
     22 O3         -0.1114   -0.7941   -8.3428 O.2       1 <0>        -0.5189
     23 C15        -0.1017    1.2659   -7.3066 C.2       1 <0>        -0.2486
     24 C16        -0.1216    2.1667   -8.4583 C.2       1 <0>        -0.0500
     25 C17        -0.1225    3.4914   -8.1993 C.2       1 <0>        -0.1695
     26 S1         -0.0977    3.6137   -6.4311 S.3       1 <0>         0.1476
     27 C18        -0.0847    1.8814   -6.0450 C.2       1 <0>         0.1062
     28 N4         -0.0699    1.1774   -4.9166 N.2       1 <0>        -0.4881
     29 C19        -0.1397    4.6110   -9.1947 C.3       1 <0>        -0.0372
     30 C20         0.2194    4.0385  -10.5734 C.3       1 <0>        -0.1153
     31 C21        -0.6175    2.7788  -10.8149 C.3       1 <0>        -0.1233
     32 C22        -0.1402    1.6538   -9.8956 C.3       1 <0>        -0.0600
     33 H2          1.0164    1.8292    0.0021 H         1 <0>         0.0647
     34 H3         -0.5365    1.8247   -0.8679 H         1 <0>         0.0817
     35 H4         -0.5134    1.8105    0.9119 H         1 <0>         0.0731
     36 H5          0.5435   -1.6967    1.1187 H         1 <0>         0.1204
     37 H6          0.5436   -0.1624    2.0210 H         1 <0>         0.1153
     38 H7         -0.8713   -2.0602    3.3589 H         1 <0>         0.4142
     39 H8         -2.3693   -1.7038    5.3947 H         1 <0>         0.1362
     40 H9         -4.6717   -1.9900    6.2157 H         1 <0>         0.1385
     41 H10        -6.0714   -2.3202    2.1981 H         1 <0>         0.1371
     42 H11        -3.7733   -2.0241    1.3685 H         1 <0>         0.1472
     43 H12        -0.9255    0.7129   -2.5119 H         1 <0>         0.1113
     44 H13         0.8543    0.7263   -2.5349 H         1 <0>         0.1101
     45 H14         0.8575   -1.5128   -3.6003 H         1 <0>         0.1147
     46 H15        -0.9223   -1.5262   -3.5773 H         1 <0>         0.1143
     47 H16        -1.1341    5.0560   -9.2296 H         1 <0>         0.0863
     48 H17         0.5916    5.3672   -8.9094 H         1 <0>         0.0845
     49 H18        -0.0005    4.7769  -11.3445 H         1 <0>         0.0764
     50 H19         1.2789    3.7841  -10.5990 H         1 <0>         0.0694
     51 H20        -1.6656    2.9953  -10.6086 H         1 <0>         0.0661
     52 H21        -0.5111    2.4670  -11.8539 H         1 <0>         0.0719
     53 H22         0.8640    1.3451  -10.1863 H         1 <0>         0.0789
     54 H23        -0.8214    0.8063   -9.9722 H         1 <0>         0.0857
@<TRIPOS>BOND
     1    1    2 1
     2    1   33 1
     3    1   34 1
     4    1   35 1
     5    2    3 1
     6    2   14 am
     7    3    4 1
     8    3   36 1
     9    3   37 1
    10    4    5 2
    11    4    6 am
    12    6    7 1
    13    6   38 1
    14    7   12 ar
    15    7    8 ar
    16    8    9 ar
    17    8   39 1
    18    9   10 ar
    19    9   40 1
    20   10   11 ar
    21   10   13 1
    22   11   12 ar
    23   11   41 1
    24   12   42 1
    25   14   15 2
    26   14   16 1
    27   16   17 1
    28   16   43 1
    29   16   44 1
    30   17   18 1
    31   17   45 1
    32   17   46 1
    33   18   28 2
    34   18   19 1
    35   19   20 1
    36   19   21 am
    37   21   22 2
    38   21   23 1
    39   23   27 2
    40   23   24 1
    41   24   32 1
    42   24   25 2
    43   25   26 1
    44   25   29 1
    45   26   27 1
    46   27   28 1
    47   29   30 1
    48   29   47 1
    49   29   48 1
    50   30   31 1
    51   30   49 1
    52   30   50 1
    53   31   32 1
    54   31   51 1
    55   31   52 1
    56   32   53 1
    57   32   54 1
@<TRIPOS>MOLECULE
ZINC59741214
   63    65     0     0     0
SMALL
USER_CHARGES

@<TRIPOS>ATOM
      1 C1          4.3848   -6.6216    2.0207 C.3       1 <0>        -0.1167
      2 C2          3.0040   -6.2521    1.5432 C.ar      1 <0>        -0.0913
      3 C3          1.9577   -7.1421    1.7032 C.ar      1 <0>        -0.1036
      4 C4          0.6911   -6.8067    1.2667 C.ar      1 <0>        -0.1221
      5 C5          0.4687   -5.5739    0.6664 C.ar      1 <0>         0.1340
      6 C6          1.5220   -4.6823    0.5074 C.ar      1 <0>        -0.1465
      7 C7          2.7850   -5.0218    0.9512 C.ar      1 <0>        -0.0990
      8 N1         -0.8110   -5.2317    0.2235 N.pl3     1 <0>        -1.0560
      9 S1         -1.4370   -3.7392    0.5740 S.o2      1 <0>         2.6925
     10 O1         -0.4588   -2.7861    0.1814 O.2       1 <0>        -0.9480
     11 O2         -2.7629   -3.7247    0.0632 O.2       1 <0>        -0.9502
     12 C8         -1.5716   -3.6295    2.3274 C.ar      1 <0>        -0.6908
     13 C9         -2.6821   -4.1480    2.9679 C.ar      1 <0>         0.0036
     14 C10        -2.7906   -4.0636    4.3422 C.ar      1 <0>        -0.1401
     15 C11        -1.7829   -3.4576    5.0809 C.ar      1 <0>         0.2076
     16 C12        -0.6687   -2.9383    4.4347 C.ar      1 <0>        -0.1639
     17 C13        -0.5639   -3.0301    3.0606 C.ar      1 <0>         0.0068
     18 N2         -1.8900   -3.3701    6.4733 N.am      1 <0>        -0.6776
     19 C14        -2.4293   -4.3880    7.1730 C.2       1 <0>         0.5245
     20 O3         -2.7355   -5.4168    6.6083 O.2       1 <0>        -0.5058
     21 C15        -2.6517   -4.2478    8.6568 C.3       1 <0>        -0.1200
     22 H1         -1.6981   -4.0645    9.1519 H         1 <0>         0.1074
     23 C16        -3.5991   -3.0757    8.9229 C.3       1 <0>        -0.1129
     24 C17        -3.7997   -2.9120   10.4312 C.3       1 <0>        -0.1361
     25 C18        -4.4346   -4.1853   10.9991 C.3       1 <0>         0.0802
     26 N3         -3.6032   -5.3367   10.6224 N.am      1 <0>        -0.6122
     27 C19        -3.2728   -5.5366    9.2047 C.3       1 <0>         0.1308
     28 C20        -3.1517   -6.1935   11.5596 C.2       1 <0>         0.5266
     29 O4         -2.3928   -7.0871   11.2491 O.2       1 <0>        -0.5324
     30 C21        -3.5897   -6.0411   12.9935 C.3       1 <0>        -0.0850
     31 C22        -3.0810   -7.2300   13.8113 C.3       1 <0>        -0.1287
     32 C23        -3.0151   -4.7443   13.5672 C.3       1 <0>        -0.1536
     33 C24        -5.1176   -5.9943   13.0578 C.3       1 <0>        -0.1631
     34 H2          4.5078   -6.3050    3.0565 H         1 <0>         0.0713
     35 H3          4.5158   -7.7015    1.9529 H         1 <0>         0.0673
     36 H4          5.1293   -6.1253    1.3983 H         1 <0>         0.0682
     37 H5          2.1313   -8.1005    2.1696 H         1 <0>         0.1272
     38 H6         -0.1256   -7.5023    1.3916 H         1 <0>         0.1284
     39 H7          1.3526   -3.7231    0.0408 H         1 <0>         0.1560
     40 H8          3.6034   -4.3273    0.8318 H         1 <0>         0.1300
     41 H9         -1.3330   -5.8682   -0.2895 H         1 <0>         0.4272
     42 H10        -3.4655   -4.6192    2.3928 H         1 <0>         0.1430
     43 H11        -3.6585   -4.4682    4.8417 H         1 <0>         0.1411
     44 H12         0.1165   -2.4660    5.0064 H         1 <0>         0.1378
     45 H13         0.3042   -2.6301    2.5579 H         1 <0>         0.1467
     46 H14        -1.5762   -2.5768    6.9350 H         1 <0>         0.4158
     47 H15        -3.1701   -2.1617    8.5122 H         1 <0>         0.0737
     48 H16        -4.5605   -3.2708    8.4477 H         1 <0>         0.0754
     49 H17        -2.8355   -2.7414   10.9101 H         1 <0>         0.0731
     50 H18        -4.4559   -2.0625   10.6208 H         1 <0>         0.0862
     51 H19        -4.4887   -4.1134   12.0853 H         1 <0>         0.1153
     52 H20        -5.4368   -4.3083   10.5885 H         1 <0>         0.0739
     53 H21        -4.1802   -5.7703    8.6479 H         1 <0>         0.0791
     54 H22        -2.5604   -6.3558    9.1070 H         1 <0>         0.1014
     55 H23        -1.9924   -7.2633   13.7654 H         1 <0>         0.0638
     56 H24        -3.3978   -7.1198   14.8484 H         1 <0>         0.0637
     57 H25        -3.4903   -8.1538   13.4025 H         1 <0>         0.0614
     58 H26        -3.3383   -3.9019   12.9556 H         1 <0>         0.0704
     59 H27        -3.3714   -4.6096   14.5885 H         1 <0>         0.0723
     60 H28        -1.9264   -4.7975   13.5662 H         1 <0>         0.0632
     61 H29        -5.5218   -6.9766   12.8132 H         1 <0>         0.0629
     62 H30        -5.4305   -5.7128   14.0633 H         1 <0>         0.0708
     63 H31        -5.4890   -5.2603   12.3428 H         1 <0>         0.0748
@<TRIPOS>BOND
     1    1    2 1
     2    1   34 1
     3    1   35 1
     4    1   36 1
     5    2    7 ar
     6    2    3 ar
     7    3    4 ar
     8    3   37 1
     9    4    5 ar
    10    4   38 1
    11    5    6 ar
    12    5    8 1
    13    6    7 ar
    14    6   39 1
    15    7   40 1
    16    8    9 1
    17    8   41 1
    18    9   10 2
    19    9   11 2
    20    9   12 1
    21   12   17 ar
    22   12   13 ar
    23   13   14 ar
    24   13   42 1
    25   14   15 ar
    26   14   43 1
    27   15   16 ar
    28   15   18 1
    29   16   17 ar
    30   16   44 1
    31   17   45 1
    32   18   19 am
    33   18   46 1
    34   19   20 2
    35   19   21 1
    36   21   22 1
    37   21   27 1
    38   21   23 1
    39   23   24 1
    40   23   47 1
    41   23   48 1
    42   24   25 1
    43   24   49 1
    44   24   50 1
    45   25   26 1
    46   25   51 1
    47   25   52 1
    48   26   27 1
    49   26   28 am
    50   27   53 1
    51   27   54 1
    52   28   29 2
    53   28   30 1
    54   30   31 1
    55   30   32 1
    56   30   33 1
    57   31   55 1
    58   31   56 1
    59   31   57 1
    60   32   58 1
    61   32   59 1
    62   32   60 1
    63   33   61 1
    64   33   62 1
    65   33   63 1
@<TRIPOS>MOLECULE
ZINC08894956
   63    66     0     0     0
SMALL
USER_CHARGES
4-[1-[(2-ethyl-6-methyl-phenyl)carbamoyl]ethyl]-7-methyl-N-(o-tolyl)-5-oxo-9-thia-2,4-diazabicyclo[4.3.0]nona-2,7,10-triene-8-carboxamide
@<TRIPOS>ATOM
      1 C1         13.1731    2.1052    2.1269 C.3       1 <0>        -0.1483
      2 C2         12.9245    0.5980    2.0399 C.3       1 <0>        -0.0857
      3 C3         12.0466    0.1666    3.1863 C.ar      1 <0>        -0.0814
      4 C4         12.6150   -0.3223    4.3465 C.ar      1 <0>        -0.1146
      5 C5         11.8100   -0.7244    5.3962 C.ar      1 <0>        -0.1091
      6 C6         10.4340   -0.6324    5.2910 C.ar      1 <0>        -0.1155
      7 C7          9.8599   -0.1387    4.1362 C.ar      1 <0>        -0.0628
      8 C8         10.6657    0.2656    3.0797 C.ar      1 <0>         0.1273
      9 N1         10.0871    0.7664    1.9083 N.am      1 <0>        -0.6629
     10 C9          9.1938    0.0222    1.2265 C.2       1 <0>         0.5047
     11 O1          8.8149   -1.0369    1.6801 O.2       1 <0>        -0.5023
     12 C10         8.6658    0.5061   -0.0995 C.3       1 <0>         0.0956
     13 H1          8.1617    1.4627    0.0375 H         1 <0>         0.1485
     14 C11         9.8283    0.6779   -1.0793 C.3       1 <0>        -0.1639
     15 N2          7.7171   -0.4738   -0.6343 N.am      1 <0>        -0.5161
     16 C12         8.1378   -1.7387   -0.8815 C.2       1 <0>         0.4317
     17 N3          7.3358   -2.6519   -1.3578 N.2       1 <0>        -0.4963
     18 C13         6.0632   -2.3890   -1.6256 C.2       1 <0>         0.1334
     19 C14         5.5051   -1.1080   -1.4108 C.2       1 <0>        -0.2614
     20 C15         6.4446   -0.0991   -0.8706 C.2       1 <0>         0.5650
     21 O2          6.0765    1.0400   -0.6451 O.2       1 <0>        -0.5018
     22 C16         4.1550   -0.9696   -1.7409 C.2       1 <0>         0.0438
     23 C17         3.4617   -2.0395   -2.2266 C.2       1 <0>        -0.2612
     24 S1          4.6970   -3.3274   -2.2611 S.3       1 <0>         0.1833
     25 C18         2.0534   -2.1118   -2.6270 C.2       1 <0>         0.6130
     26 O3          1.3440   -1.1268   -2.5376 O.2       1 <0>        -0.4982
     27 N4          1.5440   -3.2689   -3.0940 N.am      1 <0>        -0.6656
     28 C19         0.1796   -3.3655   -3.3843 C.ar      1 <0>         0.1419
     29 C20        -0.5101   -2.2591   -3.8637 C.ar      1 <0>        -0.1171
     30 C21        -1.8565   -2.3590   -4.1535 C.ar      1 <0>        -0.1069
     31 C22        -2.5206   -3.5563   -3.9574 C.ar      1 <0>        -0.1281
     32 C23        -1.8382   -4.6581   -3.4758 C.ar      1 <0>        -0.1030
     33 C24        -0.4902   -4.5662   -3.1885 C.ar      1 <0>        -0.1098
     34 C25         0.2526   -5.7674   -2.6627 C.3       1 <0>        -0.1132
     35 C26         3.4647    0.3573   -1.5569 C.3       1 <0>        -0.1228
     36 C27         8.3605   -0.0384    4.0226 C.3       1 <0>        -0.1082
     37 H2         12.2214    2.6340    2.0748 H         1 <0>         0.0507
     38 H3         13.6669    2.3381    3.0703 H         1 <0>         0.0600
     39 H4         13.8081    2.4172    1.2978 H         1 <0>         0.0624
     40 H5         13.8762    0.0692    2.0921 H         1 <0>         0.0770
     41 H6         12.4307    0.3651    1.0965 H         1 <0>         0.0704
     42 H7         13.6891   -0.3951    4.4319 H         1 <0>         0.1271
     43 H8         12.2566   -1.1109    6.3004 H         1 <0>         0.1262
     44 H9          9.8080   -0.9467    6.1130 H         1 <0>         0.1263
     45 H10        10.3288    1.6491    1.5868 H         1 <0>         0.4110
     46 H11        10.3324   -0.2788   -1.2162 H         1 <0>         0.0755
     47 H12         9.4464    1.0278   -2.0383 H         1 <0>         0.0858
     48 H13        10.5342    1.4069   -0.6814 H         1 <0>         0.0911
     49 H14         9.1662   -1.9984   -0.6782 H         1 <0>         0.2123
     50 H15         2.1247   -4.0335   -3.2325 H         1 <0>         0.4080
     51 H16         0.0070   -1.3228   -4.0132 H         1 <0>         0.1429
     52 H17        -2.3926   -1.5001   -4.5294 H         1 <0>         0.1264
     53 H18        -3.5747   -3.6306   -4.1806 H         1 <0>         0.1241
     54 H19        -2.3596   -5.5916   -3.3238 H         1 <0>         0.1269
     55 H20         0.2070   -5.7747   -1.5737 H         1 <0>         0.0738
     56 H21        -0.2054   -6.6768   -3.0517 H         1 <0>         0.0732
     57 H22         1.2936   -5.7194   -2.9825 H         1 <0>         0.0585
     58 H23         3.0400    0.4100   -0.5544 H         1 <0>         0.0807
     59 H24         4.1862    1.1636   -1.6887 H         1 <0>         0.0833
     60 H25         2.6685    0.4580   -2.2945 H         1 <0>         0.0934
     61 H26         7.9531   -1.0049    3.7262 H         1 <0>         0.0834
     62 H27         7.9418    0.2524    4.9861 H         1 <0>         0.0635
     63 H28         8.1022    0.7100    3.2735 H         1 <0>         0.0541
@<TRIPOS>BOND
     1    1    2 1
     2    1   37 1
     3    1   38 1
     4    1   39 1
     5    2    3 1
     6    2   40 1
     7    2   41 1
     8    3    8 ar
     9    3    4 ar
    10    4    5 ar
    11    4   42 1
    12    5    6 ar
    13    5   43 1
    14    6    7 ar
    15    6   44 1
    16    7    8 ar
    17    7   36 1
    18    8    9 1
    19    9   10 am
    20    9   45 1
    21   10   11 2
    22   10   12 1
    23   12   13 1
    24   12   14 1
    25   12   15 1
    26   14   46 1
    27   14   47 1
    28   14   48 1
    29   15   20 am
    30   15   16 1
    31   16   17 2
    32   16   49 1
    33   17   18 1
    34   18   24 1
    35   18   19 2
    36   19   20 1
    37   19   22 1
    38   20   21 2
    39   22   23 2
    40   22   35 1
    41   23   24 1
    42   23   25 1
    43   25   26 2
    44   25   27 am
    45   27   28 1
    46   27   50 1
    47   28   33 ar
    48   28   29 ar
    49   29   30 ar
    50   29   51 1
    51   30   31 ar
    52   30   52 1
    53   31   32 ar
    54   31   53 1
    55   32   33 ar
    56   32   54 1
    57   33   34 1
    58   34   55 1
    59   34   56 1
    60   34   57 1
    61   35   58 1
    62   35   59 1
    63   35   60 1
    64   36   61 1
    65   36   62 1
    66   36   63 1
@<TRIPOS>MOLECULE
ZINC13669245
   63    66     0     0     0
SMALL
USER_CHARGES
3-methyl-N-[(4-morpholinophenyl)methyl]-4-(p-tolylsulfonylamino)benzamide
@<TRIPOS>ATOM
      1 C1          1.6929    5.4793    4.6746 C.3       1 <0>        -0.1276
      2 C2          1.6226    4.5623    3.4808 C.ar      1 <0>        -0.0220
      3 C3          2.1457    3.2851    3.5586 C.ar      1 <0>        -0.1420
      4 C4          2.0813    2.4440    2.4635 C.ar      1 <0>        -0.0120
      5 C5          1.4929    2.8797    1.2910 C.ar      1 <0>        -0.6834
      6 C6          0.9740    4.1585    1.2117 C.ar      1 <0>        -0.0105
      7 C7          1.0346    4.9982    2.3081 C.ar      1 <0>        -0.1413
      8 S1          1.4107    1.8074   -0.1048 S.o2      1 <0>         2.6899
      9 O1          2.4574    0.8589    0.0496 O.2       1 <0>        -0.9455
     10 O2          1.3003    2.6403   -1.2508 O.2       1 <0>        -0.9451
     11 N1         -0.0111    0.9658    0.0074 N.pl3     1 <0>        -1.0514
     12 C8         -1.2234    1.6467    0.0138 C.ar      1 <0>         0.1827
     13 C9         -1.3790    2.7957   -0.7572 C.ar      1 <0>        -0.1804
     14 C10        -2.5773    3.4717   -0.7529 C.ar      1 <0>        -0.0594
     15 C11        -3.6394    3.0038    0.0268 C.ar      1 <0>        -0.1483
     16 C12        -3.4800    1.8501    0.7997 C.ar      1 <0>        -0.0335
     17 C13        -2.2807    1.1752    0.7867 C.ar      1 <0>        -0.1098
     18 C14        -2.1101   -0.0725    1.6146 C.3       1 <0>        -0.1147
     19 C15        -4.9258    3.7259    0.0333 C.2       1 <0>         0.5608
     20 O3         -5.8486    3.3179    0.7118 O.2       1 <0>        -0.5352
     21 N2         -5.0781    4.8379   -0.7128 N.am      1 <0>        -0.7232
     22 C16        -6.3555    5.5551   -0.7064 C.3       1 <0>         0.1652
     23 C17        -6.2637    6.7531   -1.6160 C.ar      1 <0>        -0.1372
     24 C18        -5.8470    7.9716   -1.1121 C.ar      1 <0>        -0.0708
     25 C19        -5.7562    9.0701   -1.9442 C.ar      1 <0>        -0.1716
     26 C20        -6.0950    8.9527   -3.2862 C.ar      1 <0>         0.1201
     27 C21        -6.5187    7.7286   -3.7879 C.ar      1 <0>        -0.1399
     28 C22        -6.6017    6.6327   -2.9515 C.ar      1 <0>        -0.0725
     29 N3         -6.0095   10.0629   -4.1294 N.pl3     1 <0>        -0.4892
     30 C23        -5.1366    9.7851   -5.2793 C.3       1 <0>         0.0204
     31 C24        -5.1187   11.0039   -6.2057 C.3       1 <0>         0.0609
     32 O4         -4.6921   12.1517   -5.4669 O.3       1 <0>        -0.3821
     33 C25        -5.5202   12.4517   -4.3402 C.3       1 <0>         0.0613
     34 C26        -5.5422   11.2476   -3.3949 C.3       1 <0>         0.0121
     35 H1          2.6189    6.0531    4.6381 H         1 <0>         0.0817
     36 H2          0.8424    6.1609    4.6598 H         1 <0>         0.0742
     37 H3          1.6681    4.8873    5.5895 H         1 <0>         0.0744
     38 H4          2.6051    2.9446    4.4748 H         1 <0>         0.1350
     39 H5          2.4903    1.4463    2.5242 H         1 <0>         0.1412
     40 H6          0.5182    4.5004    0.2942 H         1 <0>         0.1403
     41 H7          0.6256    5.9959    2.2475 H         1 <0>         0.1342
     42 H8          0.0017   -0.0024    0.0645 H         1 <0>         0.4293
     43 H9         -0.5583    3.1564   -1.3595 H         1 <0>         0.1683
     44 H10        -2.6976    4.3626   -1.3514 H         1 <0>         0.1326
     45 H11        -4.2986    1.4862    1.4030 H         1 <0>         0.1428
     46 H12        -1.7444    0.1962    2.6056 H         1 <0>         0.0765
     47 H13        -3.0696   -0.5813    1.7069 H         1 <0>         0.0759
     48 H14        -1.3928   -0.7348    1.1299 H         1 <0>         0.0658
     49 H15        -4.3419    5.1634   -1.2541 H         1 <0>         0.4011
     50 H16        -7.1462    4.8921   -1.0575 H         1 <0>         0.0782
     51 H17        -6.5817    5.8852    0.3075 H         1 <0>         0.0776
     52 H18        -5.5883    8.0633   -0.0675 H         1 <0>         0.1254
     53 H19        -5.4265   10.0204   -1.5509 H         1 <0>         0.1290
     54 H20        -6.7832    7.6340   -4.8307 H         1 <0>         0.1275
     55 H21        -6.9307    5.6806   -3.3410 H         1 <0>         0.1277
     56 H22        -4.1254    9.5804   -4.9276 H         1 <0>         0.0552
     57 H23        -5.5156    8.9200   -5.8233 H         1 <0>         0.0944
     58 H24        -6.1202   11.1763   -6.5997 H         1 <0>         0.0631
     59 H25        -4.4289   10.8249   -7.0304 H         1 <0>         0.1047
     60 H26        -6.5334   12.6662   -4.6800 H         1 <0>         0.0628
     61 H27        -5.1211   13.3194   -3.8150 H         1 <0>         0.1043
     62 H28        -6.2172   11.4500   -2.5633 H         1 <0>         0.0947
     63 H29        -4.5378   11.0659   -3.0124 H         1 <0>         0.0575
@<TRIPOS>BOND
     1    1    2 1
     2    1   35 1
     3    1   36 1
     4    1   37 1
     5    2    7 ar
     6    2    3 ar
     7    3    4 ar
     8    3   38 1
     9    4    5 ar
    10    4   39 1
    11    5    6 ar
    12    5    8 1
    13    6    7 ar
    14    6   40 1
    15    7   41 1
    16    8    9 2
    17    8   10 2
    18    8   11 1
    19   11   12 1
    20   11   42 1
    21   12   17 ar
    22   12   13 ar
    23   13   14 ar
    24   13   43 1
    25   14   15 ar
    26   14   44 1
    27   15   16 ar
    28   15   19 1
    29   16   17 ar
    30   16   45 1
    31   17   18 1
    32   18   46 1
    33   18   47 1
    34   18   48 1
    35   19   20 2
    36   19   21 am
    37   21   22 1
    38   21   49 1
    39   22   23 1
    40   22   50 1
    41   22   51 1
    42   23   28 ar
    43   23   24 ar
    44   24   25 ar
    45   24   52 1
    46   25   26 ar
    47   25   53 1
    48   26   27 ar
    49   26   29 1
    50   27   28 ar
    51   27   54 1
    52   28   55 1
    53   29   34 1
    54   29   30 1
    55   30   31 1
    56   30   56 1
    57   30   57 1
    58   31   32 1
    59   31   58 1
    60   31   59 1
    61   32   33 1
    62   33   34 1
    63   33   60 1
    64   33   61 1
    65   34   62 1
    66   34   63 1
@<TRIPOS>MOLECULE
ZINC22222577
   59    62     0     0     0
SMALL
USER_CHARGES
2-[(4R)-4-methyl-2,5-dioxo-4-(4-propylphenyl)imidazolidin-1-yl]-N-[3-(2-methylthiazol-4-yl)phenyl]acetamide
@<TRIPOS>ATOM
      1 C1          6.4168    9.5736   -2.7580 C.3       1 <0>        -0.1559
      2 C2          6.0909    8.1436   -2.3224 C.3       1 <0>        -0.1191
      3 C3          4.7266    8.1197   -1.6303 C.3       1 <0>        -0.0860
      4 C4          4.4056    6.7111   -1.2013 C.ar      1 <0>        -0.0701
      5 C5          4.7895    6.2651    0.0495 C.ar      1 <0>        -0.1153
      6 C6          4.4955    4.9730    0.4429 C.ar      1 <0>        -0.0930
      7 C7          3.8175    4.1268   -0.4146 C.ar      1 <0>        -0.0998
      8 C8          3.4382    4.5712   -1.6674 C.ar      1 <0>        -0.1068
      9 C9          3.7276    5.8650   -2.0588 C.ar      1 <0>        -0.1118
     10 C10         3.4973    2.7180    0.0141 C.3       1 <0>         0.1601
     11 C11         2.2211    2.2364   -0.6470 C.2       1 <0>         0.5413
     12 O1          2.0153    2.1077   -1.8348 O.2       1 <0>        -0.4578
     13 N1          1.3632    1.9803    0.3602 N.am      1 <0>        -0.5604
     14 C12         1.9125    2.2353    1.5532 C.2       1 <0>         0.7218
     15 O2          1.3320    2.0849    2.6104 O.2       1 <0>        -0.5392
     16 N2          3.1805    2.6731    1.4521 N.am      1 <0>        -0.7256
     17 C13        -0.0042    1.4893    0.1718 C.3       1 <0>         0.0992
     18 C14        -0.0009   -0.0177    0.1690 C.2       1 <0>         0.5014
     19 O3          1.0411   -0.6221    0.3105 O.2       1 <0>        -0.5028
     20 N3         -1.1558   -0.6938    0.0094 N.am      1 <0>        -0.6825
     21 C15        -1.1402   -2.0885   -0.1039 C.ar      1 <0>         0.1486
     22 C16        -2.1940   -2.8389    0.4039 C.ar      1 <0>        -0.1378
     23 C17        -2.1824   -4.2163    0.2935 C.ar      1 <0>        -0.0990
     24 C18        -1.1240   -4.8548   -0.3217 C.ar      1 <0>        -0.1197
     25 C19        -0.0627   -4.1103   -0.8335 C.ar      1 <0>        -0.0074
     26 C20        -0.0763   -2.7216   -0.7278 C.ar      1 <0>        -0.0890
     27 C21         1.0755   -4.7947   -1.4945 C.2       1 <0>         0.1022
     28 C22         1.0625   -6.1481   -1.7001 C.2       1 <0>        -0.2059
     29 S1          2.6415   -6.3734   -2.5057 S.3       1 <0>         0.0415
     30 C23         3.1485   -4.7131   -2.4835 C.2       1 <0>         0.1014
     31 N4          2.1382   -4.1168   -1.8991 N.2       1 <0>        -0.4992
     32 C24         4.4271   -4.1098   -3.0053 C.3       1 <0>        -0.0711
     33 C25         4.6598    1.7777   -0.3106 C.3       1 <0>        -0.1448
     34 H1          7.3977    9.5908   -3.2556 H         1 <0>         0.0565
     35 H2          6.4420   10.2291   -1.8750 H         1 <0>         0.0552
     36 H3          5.6450    9.9290   -3.4566 H         1 <0>         0.0554
     37 H4          6.0657    7.4881   -3.2054 H         1 <0>         0.0640
     38 H5          6.8627    7.7882   -1.6238 H         1 <0>         0.0637
     39 H6          4.7519    8.7752   -0.7473 H         1 <0>         0.0742
     40 H7          3.9548    8.4752   -2.3288 H         1 <0>         0.0743
     41 H8          5.3196    6.9261    0.7193 H         1 <0>         0.1263
     42 H9          4.7958    4.6244    1.4200 H         1 <0>         0.1219
     43 H10         2.9123    3.9087   -2.3390 H         1 <0>         0.1389
     44 H11         3.4280    6.2133   -3.0361 H         1 <0>         0.1261
     45 H12         3.9381    2.9712    2.1918 H         1 <0>         0.4687
     46 H13        -0.6406    1.8531    0.9919 H         1 <0>         0.1335
     47 H14        -0.3969    1.8569   -0.7877 H         1 <0>         0.1318
     48 H15        -2.1107   -0.1493   -0.0318 H         1 <0>         0.4378
     49 H16        -3.0240   -2.3443    0.8864 H         1 <0>         0.1288
     50 H17        -3.0035   -4.7951    0.6901 H         1 <0>         0.1318
     51 H18        -1.1184   -5.9315   -0.4062 H         1 <0>         0.1259
     52 H19         0.7414   -2.1400   -1.1271 H         1 <0>         0.1442
     53 H20         0.3071   -6.8771   -1.4468 H         1 <0>         0.1991
     54 H21         4.4199   -3.0244   -2.8268 H         1 <0>         0.0965
     55 H22         4.5100   -4.3034   -4.0850 H         1 <0>         0.0923
     56 H23         5.2846   -4.5613   -2.4850 H         1 <0>         0.0921
     57 H24         4.4059    0.7565    0.0098 H         1 <0>         0.0756
     58 H25         5.5629    2.1145    0.2196 H         1 <0>         0.0826
     59 H26         4.8464    1.7861   -1.3946 H         1 <0>         0.0850
@<TRIPOS>BOND
     1    1    2 1
     2    1   34 1
     3    1   35 1
     4    1   36 1
     5    2    3 1
     6    2   37 1
     7    2   38 1
     8    3    4 1
     9    3   39 1
    10    3   40 1
    11    4    9 ar
    12    4    5 ar
    13    5    6 ar
    14    5   41 1
    15    6    7 ar
    16    6   42 1
    17    7    8 ar
    18    7   10 1
    19    8    9 ar
    20    8   43 1
    21    9   44 1
    22   10   16 1
    23   10   11 1
    24   10   33 1
    25   11   12 2
    26   11   13 am
    27   13   14 am
    28   13   17 1
    29   14   15 2
    30   14   16 am
    31   16   45 1
    32   17   18 1
    33   17   46 1
    34   17   47 1
    35   18   19 2
    36   18   20 am
    37   20   21 1
    38   20   48 1
    39   21   26 ar
    40   21   22 ar
    41   22   23 ar
    42   22   49 1
    43   23   24 ar
    44   23   50 1
    45   24   25 ar
    46   24   51 1
    47   25   26 ar
    48   25   27 1
    49   26   52 1
    50   27   31 1
    51   27   28 2
    52   28   29 1
    53   28   53 1
    54   29   30 1
    55   30   31 2
    56   30   32 1
    57   32   54 1
    58   32   55 1
    59   32   56 1
    60   33   57 1
    61   33   58 1
    62   33   59 1
@<TRIPOS>MOLECULE
ZINC35779313
   74    78     0     0     0
SMALL
USER_CHARGES

@<TRIPOS>ATOM
      1 C1         -2.9948    3.5974   -4.7298 C.3       1 <0>         0.0268
      2 O1         -3.0453    2.2102   -4.3906 O.3       1 <0>        -0.3177
      3 C2         -2.1286    1.3968   -4.9798 C.ar      1 <0>         0.1115
      4 C3         -1.1972    1.9259   -5.8611 C.ar      1 <0>        -0.1887
      5 C4         -0.2660    1.1004   -6.4598 C.ar      1 <0>        -0.1077
      6 C5         -0.2618   -0.2592   -6.1791 C.ar      1 <0>         0.1242
      7 C6         -1.1939   -0.7881   -5.2965 C.ar      1 <0>        -0.0815
      8 C7         -2.1216    0.0393   -4.6948 C.ar      1 <0>        -0.1321
      9 N1          0.6827   -1.0976   -6.7867 N.am      1 <0>        -0.6842
     10 C8          1.1541   -2.1729   -6.1247 C.2       1 <0>         0.7087
     11 O2          0.6912   -2.4703   -5.0404 O.2       1 <0>        -0.5706
     12 N2          2.1385   -2.9184   -6.6647 N.am      1 <0>        -0.6261
     13 C9          2.7964   -2.5090   -7.9148 C.3       1 <0>         0.1188
     14 C10         2.7783   -3.6947   -8.8853 C.3       1 <0>         0.0343
     15 N3          3.3675   -4.8695   -8.2291 N.3       1 <0>        -0.5096
     16 C11         2.5737   -5.2836   -7.0646 C.3       1 <0>         0.0374
     17 C12         2.5876   -4.1598   -6.0162 C.3       1 <0>         0.1364
     18 C13         3.5265   -5.9787   -9.1791 C.3       1 <0>         0.0770
     19 H1          2.5519   -6.2551   -9.5813 H         1 <0>         0.0555
     20 C14         4.1416   -7.1813   -8.4607 C.3       1 <0>        -0.0822
     21 C15         5.5409   -6.8169   -7.9233 C.3       1 <0>        -0.1232
     22 C16         6.3728   -8.1080   -8.1236 C.3       1 <0>        -0.1271
     23 C17         5.8525   -8.6427   -9.4809 C.3       1 <0>        -0.1216
     24 C18         4.3397   -8.3422   -9.4511 C.3       1 <0>        -0.1248
     25 C19         4.4313   -5.5497  -10.3054 C.2       1 <0>         0.5247
     26 O3          5.4213   -4.8897  -10.0701 O.2       1 <0>        -0.5049
     27 N4          4.1404   -5.8994  -11.5740 N.am      1 <0>        -0.7253
     28 C20         5.0557   -5.5419  -12.6606 C.3       1 <0>         0.1899
     29 H2          6.0821   -5.5927  -12.2973 H         1 <0>         0.0991
     30 C21         4.8797   -6.5291  -13.8126 C.3       1 <0>        -0.1260
     31 C22         5.6794   -6.0158  -15.0159 C.3       1 <0>        -0.1163
     32 C23         4.9870   -4.7662  -15.5564 C.3       1 <0>        -0.0841
     33 C24         4.7324   -3.7801  -14.4466 C.ar      1 <0>        -0.0682
     34 C25         4.7595   -4.1374  -13.1176 C.ar      1 <0>        -0.0957
     35 C26         4.5088   -3.1798  -12.1436 C.ar      1 <0>        -0.1119
     36 C27         4.2359   -1.8744  -12.4975 C.ar      1 <0>        -0.1290
     37 C28         4.2120   -1.5158  -13.8321 C.ar      1 <0>        -0.1137
     38 C29         4.4600   -2.4650  -14.8001 C.ar      1 <0>        -0.1263
     39 H3         -2.0219    4.0039   -4.4533 H         1 <0>         0.0552
     40 H4         -3.1459    3.7148   -5.8029 H         1 <0>         0.0551
     41 H5         -3.7780    4.1317   -4.1920 H         1 <0>         0.1002
     42 H6         -1.2006    2.9836   -6.0794 H         1 <0>         0.1318
     43 H7          0.4586    1.5124   -7.1466 H         1 <0>         0.1268
     44 H8         -1.1912   -1.8457   -5.0777 H         1 <0>         0.1514
     45 H9         -2.8441   -0.3713   -4.0051 H         1 <0>         0.1343
     46 H10         0.9972   -0.9040   -7.6836 H         1 <0>         0.4040
     47 H11         2.2585   -1.6685   -8.3534 H         1 <0>         0.0785
     48 H12         3.8271   -2.2203   -7.7086 H         1 <0>         0.0860
     49 H13         1.7498   -3.9153   -9.1709 H         1 <0>         0.0408
     50 H14         3.3577   -3.4459   -9.7744 H         1 <0>         0.0901
     51 H15         1.5480   -5.4820   -7.3755 H         1 <0>         0.0422
     52 H16         3.0046   -6.1870   -6.6332 H         1 <0>         0.0981
     53 H17         3.5985   -4.0267   -5.6310 H         1 <0>         0.0794
     54 H18         1.9115   -4.4112   -5.1989 H         1 <0>         0.1008
     55 H19         3.4962   -7.4962   -7.6407 H         1 <0>         0.0849
     56 H20         5.9680   -5.9949   -8.4977 H         1 <0>         0.0998
     57 H21         5.4878   -6.5575   -6.8659 H         1 <0>         0.0642
     58 H22         7.4365   -7.8771   -8.1815 H         1 <0>         0.0649
     59 H23         6.1746   -8.8230   -7.3251 H         1 <0>         0.0632
     60 H24         6.3299   -8.1156  -10.3069 H         1 <0>         0.0626
     61 H25         6.0267   -9.7158   -9.5603 H         1 <0>         0.0640
     62 H26         3.7911   -9.2207   -9.1112 H         1 <0>         0.0689
     63 H27         3.9976   -8.0488  -10.4436 H         1 <0>         0.0626
     64 H28         3.3251   -6.3879  -11.7676 H         1 <0>         0.3996
     65 H29         5.2520   -7.5097  -13.5159 H         1 <0>         0.0763
     66 H30         3.8247   -6.6009  -14.0767 H         1 <0>         0.0721
     67 H31         6.6938   -5.7674  -14.7037 H         1 <0>         0.0701
     68 H32         5.7104   -6.7823  -15.7902 H         1 <0>         0.0757
     69 H33         5.6214   -4.3019  -16.3114 H         1 <0>         0.0772
     70 H34         4.0374   -5.0495  -16.0105 H         1 <0>         0.0774
     71 H35         4.5273   -3.4593  -11.1005 H         1 <0>         0.1363
     72 H36         4.0420   -1.1354  -11.7342 H         1 <0>         0.1188
     73 H37         4.0004   -0.4953  -14.1153 H         1 <0>         0.1207
     74 H38         4.4408   -2.1837  -15.8426 H         1 <0>         0.1204
@<TRIPOS>BOND
     1    1    2 1
     2    1   39 1
     3    1   40 1
     4    1   41 1
     5    2    3 1
     6    3    8 ar
     7    3    4 ar
     8    4    5 ar
     9    4   42 1
    10    5    6 ar
    11    5   43 1
    12    6    7 ar
    13    6    9 1
    14    7    8 ar
    15    7   44 1
    16    8   45 1
    17    9   10 am
    18    9   46 1
    19   10   11 2
    20   10   12 am
    21   12   17 1
    22   12   13 1
    23   13   14 1
    24   13   47 1
    25   13   48 1
    26   14   15 1
    27   14   49 1
    28   14   50 1
    29   15   16 1
    30   15   18 1
    31   16   17 1
    32   16   51 1
    33   16   52 1
    34   17   53 1
    35   17   54 1
    36   18   19 1
    37   18   20 1
    38   18   25 1
    39   20   24 1
    40   20   21 1
    41   20   55 1
    42   21   22 1
    43   21   56 1
    44   21   57 1
    45   22   23 1
    46   22   58 1
    47   22   59 1
    48   23   24 1
    49   23   60 1
    50   23   61 1
    51   24   62 1
    52   24   63 1
    53   25   26 2
    54   25   27 am
    55   27   28 1
    56   27   64 1
    57   28   29 1
    58   28   34 1
    59   28   30 1
    60   30   31 1
    61   30   65 1
    62   30   66 1
    63   31   32 1
    64   31   67 1
    65   31   68 1
    66   32   33 1
    67   32   69 1
    68   32   70 1
    69   33   38 ar
    70   33   34 ar
    71   34   35 ar
    72   35   36 ar
    73   35   71 1
    74   36   37 ar
    75   36   72 1
    76   37   38 ar
    77   37   73 1
    78   38   74 1
@<TRIPOS>MOLECULE
ZINC58011970
   63    67     0     0     0
SMALL
USER_CHARGES

@<TRIPOS>ATOM
      1 C1         -0.0184    1.5028    0.0103 C.3       1 <0>        -0.1172
      2 C2          0.0021   -0.0041    0.0020 C.ar      1 <0>        -0.0808
      3 C3          0.0057   -0.6887   -1.1989 C.ar      1 <0>        -0.1221
      4 C4          0.0245   -2.0709   -1.2065 C.ar      1 <0>        -0.1041
      5 C5          0.0400   -2.7685   -0.0132 C.ar      1 <0>        -0.0886
      6 C6          0.0373   -2.0839    1.1877 C.ar      1 <0>        -0.0808
      7 C7          0.0229   -0.7016    1.1953 C.ar      1 <0>        -0.1234
      8 C8          0.0595   -4.2753   -0.0215 C.3       1 <0>         0.1758
      9 H1         -0.2927   -4.6379   -0.9872 H         1 <0>         0.0768
     10 C9          1.4664   -4.7608    0.2148 C.ar      1 <0>        -0.1104
     11 C10         1.9423   -4.8992    1.5053 C.ar      1 <0>        -0.0921
     12 C11         3.2328   -5.3446    1.7220 C.ar      1 <0>        -0.1215
     13 C12         4.0474   -5.6520    0.6483 C.ar      1 <0>        -0.1162
     14 C13         3.5712   -5.5145   -0.6422 C.ar      1 <0>        -0.1206
     15 C14         2.2792   -5.0733   -0.8588 C.ar      1 <0>        -0.1099
     16 O1         -0.7946   -4.7684    1.0127 O.3       1 <0>        -0.3560
     17 C15        -1.3899   -6.0342    0.7206 C.3       1 <0>         0.0337
     18 C16        -2.2785   -6.4619    1.8904 C.3       1 <0>         0.0966
     19 H2         -1.6944   -6.4583    2.8107 H         1 <0>         0.1109
     20 C17        -2.8167   -7.8709    1.6334 C.3       1 <0>         0.0862
     21 N1         -3.6676   -8.2805    2.7535 N.am      1 <0>        -0.5673
     22 C18        -3.2182   -8.9215    3.8522 C.2       1 <0>         0.5361
     23 O2         -2.0780   -9.2567    4.0917 O.2       1 <0>        -0.4519
     24 C19        -4.4361   -9.1334    4.7215 C.3       1 <0>         0.1750
     25 C20        -4.2682   -8.4139    6.0564 C.3       1 <0>        -0.1546
     26 C21        -3.2908   -9.2233    6.9199 C.3       1 <0>         0.0585
     27 O3         -3.8746  -10.4980    7.1910 O.3       1 <0>        -0.3084
     28 C22        -4.3826  -11.2047    6.1484 C.ar      1 <0>         0.1619
     29 C23        -4.6771  -10.6013    4.9361 C.ar      1 <0>        -0.1812
     30 C24        -5.2021  -11.3568    3.9017 C.ar      1 <0>        -0.0634
     31 C25        -5.4291  -12.7091    4.0705 C.ar      1 <0>        -0.1517
     32 C26        -5.1310  -13.3146    5.2770 C.ar      1 <0>        -0.0668
     33 C27        -4.6094  -12.5667    6.3130 C.ar      1 <0>        -0.1497
     34 N2         -5.5341   -8.5381    3.9502 N.am      1 <0>        -0.7125
     35 C28        -4.9865   -8.0600    2.8162 C.2       1 <0>         0.7098
     36 O4         -5.6195   -7.4952    1.9459 O.2       1 <0>        -0.5304
     37 O5         -3.3716   -5.5502    2.0164 O.3       1 <0>        -0.5416
     38 H3          1.0042    1.8801    0.0026 H         1 <0>         0.0711
     39 H4         -0.5455    1.8639   -0.8728 H         1 <0>         0.0668
     40 H5         -0.5286    1.8543    0.9071 H         1 <0>         0.0670
     41 H6         -0.0064   -0.1436   -2.1312 H         1 <0>         0.1232
     42 H7          0.0266   -2.6057   -2.1448 H         1 <0>         0.1207
     43 H8          0.0491   -2.6289    2.1200 H         1 <0>         0.1250
     44 H9          0.0245   -0.1667    2.1335 H         1 <0>         0.1224
     45 H10         1.3059   -4.6590    2.3441 H         1 <0>         0.1256
     46 H11         3.6048   -5.4520    2.7302 H         1 <0>         0.1227
     47 H12         5.0559   -5.9993    0.8176 H         1 <0>         0.1220
     48 H13         4.2077   -5.7544   -1.4810 H         1 <0>         0.1229
     49 H14         1.9060   -4.9694   -1.8669 H         1 <0>         0.1202
     50 H15        -1.9937   -5.9519   -0.1832 H         1 <0>         0.0595
     51 H16        -0.6072   -6.7774    0.5683 H         1 <0>         0.0636
     52 H17        -3.4008   -7.8746    0.7132 H         1 <0>         0.1057
     53 H18        -1.9829   -8.5664    1.5373 H         1 <0>         0.1081
     54 H19        -3.8681   -7.4142    5.8873 H         1 <0>         0.0986
     55 H20        -5.2324   -8.3440    6.5601 H         1 <0>         0.1033
     56 H21        -2.3519   -9.3573    6.3825 H         1 <0>         0.0836
     57 H22        -3.1079   -8.6974    7.8570 H         1 <0>         0.1224
     58 H23        -5.4357  -10.8866    2.9579 H         1 <0>         0.1209
     59 H24        -5.8398  -13.2931    3.2601 H         1 <0>         0.1299
     60 H25        -5.3064  -14.3721    5.4089 H         1 <0>         0.1354
     61 H26        -4.3770  -13.0409    7.2551 H         1 <0>         0.1380
     62 H27        -6.4683   -8.4946    4.2077 H         1 <0>         0.4434
     63 H28        -3.9357   -5.5016    1.2325 H         1 <0>         0.3796
@<TRIPOS>BOND
     1    1    2 1
     2    1   38 1
     3    1   39 1
     4    1   40 1
     5    2    7 ar
     6    2    3 ar
     7    3    4 ar
     8    3   41 1
     9    4    5 ar
    10    4   42 1
    11    5    6 ar
    12    5    8 1
    13    6    7 ar
    14    6   43 1
    15    7   44 1
    16    8    9 1
    17    8   10 1
    18    8   16 1
    19   10   15 ar
    20   10   11 ar
    21   11   12 ar
    22   11   45 1
    23   12   13 ar
    24   12   46 1
    25   13   14 ar
    26   13   47 1
    27   14   15 ar
    28   14   48 1
    29   15   49 1
    30   16   17 1
    31   17   18 1
    32   17   50 1
    33   17   51 1
    34   18   19 1
    35   18   20 1
    36   18   37 1
    37   20   21 1
    38   20   52 1
    39   20   53 1
    40   21   35 am
    41   21   22 am
    42   22   23 2
    43   22   24 1
    44   24   29 1
    45   24   25 1
    46   24   34 1
    47   25   26 1
    48   25   54 1
    49   25   55 1
    50   26   27 1
    51   26   56 1
    52   26   57 1
    53   27   28 1
    54   28   33 ar
    55   28   29 ar
    56   29   30 ar
    57   30   31 ar
    58   30   58 1
    59   31   32 ar
    60   31   59 1
    61   32   33 ar
    62   32   60 1
    63   33   61 1
    64   34   35 am
    65   34   62 1
    66   35   36 2
    67   37   63 1
@<TRIPOS>MOLECULE
ZINC09127358
   42    44     0     0     0
SMALL
USER_CHARGES
2-[[4-amino-5-[4-(difluoromethoxy)phenyl]-1,2,4-triazol-3-yl]sulfanyl]-N-(4-bromo-2-fluoro-phenyl)-acetamide
@<TRIPOS>ATOM
      1 C1          6.0842    3.6841   -0.2674 C.ar      1 <0>        -0.0304
      2 C2          7.1168    4.5973   -0.2736 C.ar      1 <0>        -0.1831
      3 C3          6.8530    5.9478   -0.0871 C.ar      1 <0>         0.1249
      4 C4          5.5484    6.3848    0.1010 C.ar      1 <0>        -0.1241
      5 C5          4.5096    5.4786    0.1033 C.ar      1 <0>        -0.0849
      6 C6          4.7706    4.1200   -0.0839 C.ar      1 <0>        -0.0452
      7 C7          3.6598    3.1448   -0.0817 C.2       1 <0>         0.1999
      8 N1          3.7629    1.8449    0.0700 N.2       1 <0>        -0.2517
      9 N2          2.5980    1.3040    0.0247 N.2       1 <0>        -0.2870
     10 C8          1.6802    2.2244   -0.1672 C.2       1 <0>         0.1726
     11 N3          2.3226    3.4281   -0.2384 N.pl3     1 <0>        -0.3031
     12 N4          1.7556    4.6565   -0.4263 N.3       1 <0>        -0.5852
     13 S1         -0.0563    1.9569   -0.3002 S.3       1 <0>         0.1255
     14 C9         -0.1128    0.1579   -0.1094 C.3       1 <0>        -0.1629
     15 C10        -1.5425   -0.3114   -0.1918 C.2       1 <0>         0.5411
     16 O1         -2.4354    0.4915   -0.3627 O.2       1 <0>        -0.4988
     17 N5         -1.8290   -1.6232   -0.0756 N.am      1 <0>        -0.6630
     18 C11        -3.1632   -2.0488   -0.0458 C.ar      1 <0>         0.1296
     19 C12        -4.1264   -1.3693   -0.7786 C.ar      1 <0>        -0.0902
     20 C13        -5.4416   -1.7908   -0.7477 C.ar      1 <0>        -0.0780
     21 C14        -5.8003   -2.8899    0.0125 C.ar      1 <0>        -0.0796
     22 C15        -4.8436   -3.5702    0.7445 C.ar      1 <0>        -0.1065
     23 C16        -3.5244   -3.1563    0.7134 C.ar      1 <0>         0.0825
     24 F1         -2.5888   -3.8241    1.4233 F         1 <0>        -0.1282
     25 Br1        -7.6020   -3.4627    0.0514 Br        1 <0>        -0.0308
     26 O2          7.8742    6.8441   -0.0882 O.3       1 <0>        -0.3171
     27 C17         9.1913    6.3267   -0.2871 C.3       1 <0>         0.4113
     28 F2          9.4926    5.4148    0.7302 F         1 <0>        -0.1950
     29 F3          9.2564    5.6811   -1.5265 F         1 <0>        -0.1953
     30 H1          6.2906    2.6335   -0.4084 H         1 <0>         0.1472
     31 H2          8.1328    4.2615   -0.4196 H         1 <0>         0.1451
     32 H3          5.3473    7.4360    0.2454 H         1 <0>         0.1462
     33 H4          3.4952    5.8191    0.2500 H         1 <0>         0.1255
     34 H5          1.6010    5.1221    0.4554 H         1 <0>         0.3702
     35 H6          2.3188    5.2245   -1.0413 H         1 <0>         0.3801
     36 H7          0.4695   -0.3101   -0.9031 H         1 <0>         0.1347
     37 H8          0.3050   -0.1181    0.8588 H         1 <0>         0.1344
     38 H9         -1.1112   -2.2726   -0.0126 H         1 <0>         0.4212
     39 H10        -3.8478   -0.5117   -1.3730 H         1 <0>         0.1625
     40 H11        -6.1909   -1.2619   -1.3180 H         1 <0>         0.1466
     41 H12        -5.1264   -4.4278    1.3370 H         1 <0>         0.1519
     42 H13         9.9104    7.1456   -0.2657 H         1 <0>         0.1871
@<TRIPOS>BOND
     1    1    6 ar
     2    1    2 ar
     3    1   30 1
     4    2    3 ar
     5    2   31 1
     6    3    4 ar
     7    3   26 1
     8    4    5 ar
     9    4   32 1
    10    5    6 ar
    11    5   33 1
    12    6    7 1
    13    7   11 1
    14    7    8 2
    15    8    9 1
    16    9   10 2
    17   10   11 1
    18   10   13 1
    19   11   12 1
    20   12   34 1
    21   12   35 1
    22   13   14 1
    23   14   15 1
    24   14   36 1
    25   14   37 1
    26   15   16 2
    27   15   17 am
    28   17   18 1
    29   17   38 1
    30   18   23 ar
    31   18   19 ar
    32   19   20 ar
    33   19   39 1
    34   20   21 ar
    35   20   40 1
    36   21   22 ar
    37   21   25 1
    38   22   23 ar
    39   22   41 1
    40   23   24 1
    41   26   27 1
    42   27   28 1
    43   27   29 1
    44   27   42 1
@<TRIPOS>MOLECULE
ZINC12863106
   50    53     0     0     0
SMALL
USER_CHARGES
2-[[4-amino-5-(trifluoromethyl)-1,2,4-triazol-3-yl]sulfanyl]-N-(3-benzoyl-4,5,6,7-tetrahydrobenzothiophen-2-yl)acetamide
@<TRIPOS>ATOM
      1 C1         -8.4530    0.8683    8.8010 C.ar      1 <0>        -0.0838
      2 C2         -7.5453    0.5397    9.7923 C.ar      1 <0>        -0.1315
      3 C3         -6.5505    1.4286   10.1432 C.ar      1 <0>        -0.0606
      4 C4         -6.4605    2.6618    9.4954 C.ar      1 <0>        -0.1691
      5 C5         -7.3825    2.9893    8.5000 C.ar      1 <0>        -0.0641
      6 C6         -8.3696    2.0892    8.1553 C.ar      1 <0>        -0.1330
      7 C7         -5.3964    3.6198    9.8665 C.2       1 <0>         0.4601
      8 O1         -4.5419    3.2985   10.6718 O.2       1 <0>        -0.4364
      9 C8         -5.3707    4.9547    9.2650 C.2       1 <0>        -0.2295
     10 C9         -5.9839    6.0932    9.9286 C.2       1 <0>        -0.0660
     11 C10        -5.8893    7.2656    9.2653 C.2       1 <0>        -0.2001
     12 S1         -4.9959    6.8797    7.7863 S.3       1 <0>         0.2290
     13 C11        -4.7591    5.1817    8.0367 C.2       1 <0>         0.0596
     14 N1         -4.1125    4.2725    7.2160 N.am      1 <0>        -0.6109
     15 C12        -3.6739    4.6552    6.0004 C.2       1 <0>         0.5324
     16 O2         -3.8453    5.7956    5.6252 O.2       1 <0>        -0.4836
     17 C13        -2.9703    3.6659    5.1074 C.3       1 <0>        -0.1472
     18 S2         -2.5074    4.4761    3.5564 S.3       1 <0>         0.1089
     19 C14        -1.7268    3.1302    2.7293 C.2       1 <0>         0.1300
     20 N2         -1.5727    1.9121    3.1939 N.2       1 <0>        -0.2694
     21 N3         -0.9654    1.1866    2.3240 N.2       1 <0>        -0.2049
     22 C15        -0.6895    1.8945    1.2655 C.2       1 <0>         0.1180
     23 N4         -1.1678    3.1569    1.4839 N.pl3     1 <0>        -0.2774
     24 N5         -1.1000    4.2234    0.6329 N.3       1 <0>        -0.5807
     25 C16         0.0198    1.4101    0.0271 C.3       1 <0>         0.5778
     26 F1          0.0517    0.0115    0.0250 F         1 <0>        -0.1459
     27 F2          1.3277    1.9064    0.0146 F         1 <0>        -0.1549
     28 F3         -0.6617    1.8627   -1.1077 F         1 <0>        -0.1595
     29 C17        -6.4230    8.5954    9.7011 C.3       1 <0>        -0.0370
     30 C18        -7.4241    8.3646   10.8423 C.3       1 <0>        -0.1147
     31 C19        -6.7946    7.4159   11.8665 C.3       1 <0>        -0.1193
     32 C20        -6.6902    6.0086   11.2761 C.3       1 <0>        -0.0629
     33 H1         -9.2302    0.1690    8.5303 H         1 <0>         0.1291
     34 H2         -7.6161   -0.4148   10.2927 H         1 <0>         0.1312
     35 H3         -5.8431    1.1712   10.9176 H         1 <0>         0.1342
     36 H4         -7.3210    3.9436    7.9981 H         1 <0>         0.1277
     37 H5         -9.0816    2.3400    7.3829 H         1 <0>         0.1294
     38 H6         -3.9753    3.3603    7.5160 H         1 <0>         0.4235
     39 H7         -3.6367    2.8297    4.8956 H         1 <0>         0.1417
     40 H8         -2.0740    3.2987    5.6071 H         1 <0>         0.1421
     41 H9         -1.9090    4.2575    0.0309 H         1 <0>         0.3791
     42 H10        -0.9925    5.0870    1.1434 H         1 <0>         0.3865
     43 H11        -6.9253    9.0815    8.8647 H         1 <0>         0.0824
     44 H12        -5.6041    9.2231   10.0524 H         1 <0>         0.0839
     45 H13        -8.3359    7.9194   10.4441 H         1 <0>         0.0687
     46 H14        -7.6606    9.3147   11.3214 H         1 <0>         0.0751
     47 H15        -7.4143    7.3876   12.7627 H         1 <0>         0.0714
     48 H16        -5.7986    7.7745   12.1261 H         1 <0>         0.0676
     49 H17        -7.6892    5.5945   11.1397 H         1 <0>         0.0785
     50 H18        -6.1184    5.3693   11.9488 H         1 <0>         0.0747
@<TRIPOS>BOND
     1    1    6 ar
     2    1    2 ar
     3    1   33 1
     4    2    3 ar
     5    2   34 1
     6    3    4 ar
     7    3   35 1
     8    4    5 ar
     9    4    7 1
    10    5    6 ar
    11    5   36 1
    12    6   37 1
    13    7    8 2
    14    7    9 1
    15    9   13 2
    16    9   10 1
    17   10   32 1
    18   10   11 2
    19   11   12 1
    20   11   29 1
    21   12   13 1
    22   13   14 1
    23   14   15 am
    24   14   38 1
    25   15   16 2
    26   15   17 1
    27   17   18 1
    28   17   39 1
    29   17   40 1
    30   18   19 1
    31   19   23 1
    32   19   20 2
    33   20   21 1
    34   21   22 2
    35   22   23 1
    36   22   25 1
    37   23   24 1
    38   24   41 1
    39   24   42 1
    40   25   26 1
    41   25   27 1
    42   25   28 1
    43   29   30 1
    44   29   43 1
    45   29   44 1
    46   30   31 1
    47   30   45 1
    48   30   46 1
    49   31   32 1
    50   31   47 1
    51   31   48 1
    52   32   49 1
    53   32   50 1
@<TRIPOS>MOLECULE
ZINC21231750
   60    62     0     0     0
SMALL
USER_CHARGES
(2S)-N-carbamoyl-2-[(3-isopentyl-4-oxo-5,6,7,8-tetrahydrobenzothiopheno[2,3-d]pyrimidin-2-yl)sulfanyl]-3-methyl-butanamide
@<TRIPOS>ATOM
      1 C1          3.8415   -0.0850   -3.5256 C.3       1 <0>        -0.1492
      2 C2          3.7918    0.2305   -2.0293 C.3       1 <0>        -0.0900
      3 C3          4.9948    1.0966   -1.6505 C.3       1 <0>        -0.1552
      4 C4          2.4995    0.9848   -1.7099 C.3       1 <0>        -0.1335
      5 C5          2.3898    1.1909   -0.1978 C.3       1 <0>         0.0822
      6 N1          1.1525    1.9131    0.1081 N.am      1 <0>        -0.5085
      7 C6          0.0239    1.2189    0.3435 C.2       1 <0>         0.5594
      8 O1          0.0279    0.0005    0.3026 O.2       1 <0>        -0.5152
      9 C7         -1.1822    1.9310    0.6365 C.2       1 <0>        -0.2514
     10 C8         -2.5095    1.3856    0.9273 C.2       1 <0>        -0.0442
     11 C9         -3.4935    2.2720    1.1799 C.2       1 <0>        -0.1715
     12 S1         -2.7228    3.8634    1.0551 S.3       1 <0>         0.1339
     13 C10        -1.0754    3.3317    0.6627 C.2       1 <0>         0.1219
     14 N2          0.0707    3.9572    0.4215 N.2       1 <0>        -0.5014
     15 C11         1.1664    3.2773    0.1494 C.2       1 <0>         0.3686
     16 S2          2.6694    4.1411   -0.1658 S.3       1 <0>         0.1123
     17 C12         2.0665    5.8472   -0.1224 C.3       1 <0>        -0.1179
     18 H1          1.4645    6.1806    0.7358 H         1 <0>         0.1362
     19 C13         3.2550    6.8095   -0.1701 C.3       1 <0>        -0.0792
     20 C14         2.7441    8.2516   -0.1634 C.3       1 <0>        -0.1610
     21 C15         4.1473    6.5788    1.0512 C.3       1 <0>        -0.1550
     22 C16         1.1721    6.0942   -1.3100 C.2       1 <0>         0.5332
     23 O2          1.2384    5.3698   -2.2798 O.2       1 <0>        -0.4532
     24 N3          0.2987    7.1205   -1.2938 N.am      1 <0>        -0.6966
     25 C17        -0.5011    7.3415   -2.3558 C.2       1 <0>         0.6996
     26 O3         -0.4347    6.6152   -3.3281 O.2       1 <0>        -0.5412
     27 N4         -1.3746    8.3678   -2.3397 N.am      1 <0>        -0.8823
     28 C18        -4.9268    1.9714    1.4967 C.3       1 <0>        -0.0367
     29 C19        -5.2072    0.5068    1.1313 C.3       1 <0>        -0.1153
     30 C20        -4.0888   -0.3664    1.7078 C.3       1 <0>        -0.1219
     31 C21        -2.7881   -0.1149    0.9442 C.3       1 <0>        -0.0612
     32 H2          2.9766   -0.7077   -3.7979 H         1 <0>         0.0554
     33 H3          4.7706   -0.6273   -3.7553 H         1 <0>         0.0588
     34 H4          3.8131    0.8531   -4.0993 H         1 <0>         0.0577
     35 H5          3.8203   -0.7076   -1.4556 H         1 <0>         0.0747
     36 H6          4.9591    1.3234   -0.5747 H         1 <0>         0.0542
     37 H7          4.9663    2.0347   -2.2242 H         1 <0>         0.0609
     38 H8          5.9239    0.5543   -1.8802 H         1 <0>         0.0596
     39 H9          2.5118    1.9627   -2.2134 H         1 <0>         0.0788
     40 H10         1.6371    0.4010   -2.0639 H         1 <0>         0.0738
     41 H11         2.3776    0.2129    0.3056 H         1 <0>         0.1119
     42 H12         3.2522    1.7747    0.1562 H         1 <0>         0.0983
     43 H13         3.8353    6.6304   -1.0873 H         1 <0>         0.0897
     44 H14         3.5986    8.9435   -0.1977 H         1 <0>         0.0764
     45 H15         2.1638    8.4307    0.7538 H         1 <0>         0.0670
     46 H16         2.1026    8.4174   -1.0414 H         1 <0>         0.0633
     47 H17         5.0018    7.2707    1.0169 H         1 <0>         0.0714
     48 H18         4.5146    5.5419    1.0463 H         1 <0>         0.0665
     49 H19         3.5670    6.7580    1.9683 H         1 <0>         0.0666
     50 H20         0.2386    7.7778   -0.4138 H         1 <0>         0.4302
     51 H21        -2.0274    8.5481   -3.2065 H         1 <0>         0.4436
     52 H22        -1.4347    9.0251   -1.4597 H         1 <0>         0.4158
     53 H23        -5.1067    2.1325    2.5699 H         1 <0>         0.0857
     54 H24        -5.5789    2.6366    0.9117 H         1 <0>         0.0834
     55 H25        -6.1753    0.2020    1.5555 H         1 <0>         0.0766
     56 H26        -5.2369    0.4012    0.0368 H         1 <0>         0.0695
     57 H27        -3.9406   -0.1189    2.7693 H         1 <0>         0.0665
     58 H28        -4.3661   -1.4267    1.6138 H         1 <0>         0.0723
     59 H29        -2.8854   -0.4814   -0.0884 H         1 <0>         0.0789
     60 H30        -1.9572   -0.6366    1.4416 H         1 <0>         0.0868
@<TRIPOS>BOND
     1    1    2 1
     2    1   32 1
     3    1   33 1
     4    1   34 1
     5    2    3 1
     6    2    4 1
     7    2   35 1
     8    3   36 1
     9    3   37 1
    10    3   38 1
    11    4    5 1
    12    4   39 1
    13    4   40 1
    14    5    6 1
    15    5   41 1
    16    5   42 1
    17    6   15 1
    18    6    7 am
    19    7    8 2
    20    7    9 1
    21    9   13 2
    22    9   10 1
    23   10   31 1
    24   10   11 2
    25   11   12 1
    26   11   28 1
    27   12   13 1
    28   13   14 1
    29   14   15 2
    30   15   16 1
    31   16   17 1
    32   17   18 1
    33   17   19 1
    34   17   22 1
    35   19   20 1
    36   19   21 1
    37   19   43 1
    38   20   44 1
    39   20   45 1
    40   20   46 1
    41   21   47 1
    42   21   48 1
    43   21   49 1
    44   22   23 2
    45   22   24 am
    46   24   25 am
    47   24   50 1
    48   25   26 2
    49   25   27 am
    50   27   51 1
    51   27   52 1
    52   28   29 1
    53   28   53 1
    54   28   54 1
    55   29   30 1
    56   29   55 1
    57   29   56 1
    58   30   31 1
    59   30   57 1
    60   30   58 1
    61   31   59 1
    62   31   60 1
@<TRIPOS>MOLECULE
ZINC18267877
   64    68     0     0     0
SMALL
USER_CHARGES
[2-oxo-2-(4-sulfamoylanilino)ethyl] (5R,7S)-3-(p-tolyl)adamantane-1-carboxylate
@<TRIPOS>ATOM
      1 C1          1.9477   -0.2248   -6.0086 C.3       1 <0>        -0.1186
      2 C2          1.2439    0.2511   -4.7639 C.ar      1 <0>        -0.0887
      3 C3          0.7427   -0.6665   -3.8596 C.ar      1 <0>        -0.1187
      4 C4          0.0967   -0.2300   -2.7181 C.ar      1 <0>        -0.1112
      5 C5         -0.0481    1.1242   -2.4809 C.ar      1 <0>        -0.0756
      6 C6          0.4485    2.0417   -3.3878 C.ar      1 <0>        -0.1135
      7 C7          1.0991    1.6052   -4.5267 C.ar      1 <0>        -0.1189
      8 C8         -0.7527    1.6001   -1.2367 C.3       1 <0>        -0.0067
      9 C9         -0.0102    1.0858   -0.0018 C.3       1 <0>        -0.1023
     10 C10        -0.7256    1.5690    1.2614 C.3       1 <0>        -0.0844
     11 H1         -0.1918    1.1993    2.1493 H         1 <0>         0.0810
     12 C11        -0.7491    3.0987    1.2807 C.3       1 <0>        -0.1132
     13 C12        -1.4916    3.6129    0.0458 C.3       1 <0>        -0.0830
     14 H2         -1.5085    4.7127    0.0597 H         1 <0>         0.0810
     15 C13        -0.7762    3.1298   -1.2174 C.3       1 <0>        -0.1081
     16 C14        -2.9260    3.0807    0.0547 C.3       1 <0>        -0.1053
     17 C15        -2.9025    1.5510    0.0354 C.3       1 <0>        -0.0364
     18 C16        -2.1600    1.0367    1.2704 C.3       1 <0>        -0.0944
     19 C17        -2.1871    1.0678   -1.2278 C.3       1 <0>        -0.0936
     20 C18        -4.3153    1.0267    0.0443 C.2       1 <0>         0.4744
     21 O1         -4.6899    0.3148    0.9458 O.2       1 <0>        -0.5014
     22 O2         -5.1576    1.3506   -0.9494 O.3       1 <0>        -0.3278
     23 C19        -6.5031    0.8097   -0.8757 C.3       1 <0>         0.0462
     24 C20        -7.2984    1.2770   -2.0674 C.2       1 <0>         0.5185
     25 O3         -6.7820    1.9953   -2.8972 O.2       1 <0>        -0.4891
     26 N1         -8.5834    0.8969   -2.2112 N.am      1 <0>        -0.6871
     27 C21        -9.3504    1.4075   -3.2642 C.ar      1 <0>         0.2107
     28 C22       -10.7049    1.6543   -3.0825 C.ar      1 <0>        -0.1655
     29 C23       -11.4579    2.1645   -4.1218 C.ar      1 <0>        -0.0051
     30 C24       -10.8671    2.4176   -5.3462 C.ar      1 <0>        -0.6800
     31 C25        -9.5200    2.1671   -5.5322 C.ar      1 <0>         0.0081
     32 C26        -8.7601    1.6631   -4.4949 C.ar      1 <0>        -0.1460
     33 S1        -11.8329    3.0611   -6.6720 S.o2      1 <0>         2.6375
     34 O4        -12.9446    3.7207   -6.0818 O.2       1 <0>        -0.9870
     35 O5        -10.9307    3.7238   -7.5473 O.2       1 <0>        -0.9515
     36 N2        -12.4397    1.7673   -7.5087 N.pl3     1 <0>        -1.1627
     37 H3          1.9647   -1.3246   -6.0224 H         1 <0>         0.0646
     38 H4          2.9789    0.1580   -6.0158 H         1 <0>         0.0695
     39 H5          1.4131    0.1448   -6.8961 H         1 <0>         0.0696
     40 H6          0.8555   -1.7244   -4.0451 H         1 <0>         0.1200
     41 H7         -0.2951   -0.9468   -2.0118 H         1 <0>         0.1189
     42 H8          0.3315    3.0996   -3.2047 H         1 <0>         0.1266
     43 H9          1.4904    2.3221   -5.2334 H         1 <0>         0.1207
     44 H10         0.0067   -0.0140   -0.0157 H         1 <0>         0.0668
     45 H11         1.0211    1.4684   -0.0082 H         1 <0>         0.0699
     46 H12        -1.2634    3.4461    2.1889 H         1 <0>         0.0660
     47 H13         0.2822    3.4814    1.2743 H         1 <0>         0.0685
     48 H14         0.2551    3.5124   -1.2238 H         1 <0>         0.0719
     49 H15        -1.3100    3.4996   -2.1053 H         1 <0>         0.0711
     50 H16        -3.4403    3.4281    0.9629 H         1 <0>         0.0697
     51 H17        -3.4598    3.4505   -0.8332 H         1 <0>         0.0806
     52 H18        -2.1430   -0.0631    1.2565 H         1 <0>         0.0734
     53 H19        -2.6743    1.3840    2.1786 H         1 <0>         0.0743
     54 H20        -2.7209    1.4375   -2.1157 H         1 <0>         0.0817
     55 H21        -2.1702   -0.0320   -1.2417 H         1 <0>         0.0700
     56 H22        -6.4569   -0.2893   -0.8739 H         1 <0>         0.1085
     57 H23        -6.9882    1.1578    0.0482 H         1 <0>         0.1088
     58 H24        -9.0292    0.1852   -1.5007 H         1 <0>         0.4437
     59 H25       -11.1680    1.4519   -2.1280 H         1 <0>         0.1390
     60 H26       -12.5101    2.3618   -3.9795 H         1 <0>         0.1461
     61 H27        -9.0614    2.3662   -6.4896 H         1 <0>         0.1469
     62 H28        -7.7078    1.4684   -4.6406 H         1 <0>         0.1497
     63 H29       -13.0515    2.1281   -8.3486 H         1 <0>         0.4139
     64 H30       -13.0616    1.1560   -6.8381 H         1 <0>         0.4084
@<TRIPOS>BOND
     1    1    2 1
     2    1   37 1
     3    1   38 1
     4    1   39 1
     5    2    7 ar
     6    2    3 ar
     7    3    4 ar
     8    3   40 1
     9    4    5 ar
    10    4   41 1
    11    5    6 ar
    12    5    8 1
    13    6    7 ar
    14    6   42 1
    15    7   43 1
    16    8   15 1
    17    8   19 1
    18    8    9 1
    19    9   10 1
    20    9   44 1
    21    9   45 1
    22   10   11 1
    23   10   18 1
    24   10   12 1
    25   12   13 1
    26   12   46 1
    27   12   47 1
    28   13   14 1
    29   13   15 1
    30   13   16 1
    31   15   48 1
    32   15   49 1
    33   16   17 1
    34   16   50 1
    35   16   51 1
    36   17   18 1
    37   17   19 1
    38   17   20 1
    39   18   52 1
    40   18   53 1
    41   19   54 1
    42   19   55 1
    43   20   21 2
    44   20   22 1
    45   22   23 1
    46   23   24 1
    47   23   56 1
    48   23   57 1
    49   24   25 2
    50   24   26 am
    51   26   27 1
    52   26   58 1
    53   27   32 ar
    54   27   28 ar
    55   28   29 ar
    56   28   59 1
    57   29   30 ar
    58   29   60 1
    59   30   31 ar
    60   30   33 1
    61   31   32 ar
    62   31   61 1
    63   32   62 1
    64   33   34 2
    65   33   35 2
    66   33   36 1
    67   36   63 1
    68   36   64 1
@<TRIPOS>MOLECULE
ZINC58993935
   41    43     0     0     0
SMALL
USER_CHARGES

@<TRIPOS>ATOM
      1 C1         -0.0191    1.3739   -0.0866 C.ar      1 <0>        -0.1167
      2 C2          1.1637    2.0839   -0.0925 C.ar      1 <0>        -0.0749
      3 C3          2.3834    1.4031   -0.0969 C.ar      1 <0>        -0.0485
      4 C4          2.3963    0.0060   -0.0953 C.ar      1 <0>        -0.0507
      5 C5          1.2055   -0.6914   -0.0893 C.ar      1 <0>        -0.0957
      6 C6          0.0003   -0.0093   -0.0850 C.ar      1 <0>        -0.0745
      7 Br1         1.2195   -2.5823   -0.0877 Br        1 <0>        -0.0407
      8 C7          3.6516    2.1554   -0.1038 C.2       1 <0>         0.1049
      9 N1          4.7834    1.5197   -0.1079 N.2       1 <0>        -0.1961
     10 N2          5.9883    2.2346   -0.1144 N.pl3     1 <0>        -0.5481
     11 C8          7.1941    1.5573   -0.1188 C.2       1 <0>         0.5614
     12 N3          7.3474    0.2498   -0.1232 N.2       1 <0>        -0.5166
     13 C9          8.6505   -0.0504   -0.1270 C.2       1 <0>         0.2158
     14 N4          9.3443    1.0630   -0.1251 N.2       1 <0>        -0.3218
     15 N5          8.4209    2.1208   -0.1252 N.pl3     1 <0>        -0.5021
     16 S1          9.3262   -1.6776   -0.1336 S.3       1 <0>         0.1211
     17 C10        11.1201   -1.4079   -0.1368 C.3       1 <0>        -0.1649
     18 C11        11.8281   -2.7382   -0.1425 C.2       1 <0>         0.5416
     19 O1         11.1857   -3.7671   -0.1443 O.2       1 <0>        -0.4951
     20 N6         13.1750   -2.7847   -0.1456 N.am      1 <0>        -0.6643
     21 C12        13.8335   -4.0180   -0.0567 C.ar      1 <0>         0.1187
     22 C13        13.2847   -5.1441   -0.6546 C.ar      1 <0>        -0.0813
     23 C14        13.9360   -6.3591   -0.5661 C.ar      1 <0>        -0.0974
     24 C15        15.1349   -6.4556    0.1183 C.ar      1 <0>        -0.0216
     25 C16        15.6856   -5.3357    0.7159 C.ar      1 <0>        -0.1275
     26 C17        15.0411   -4.1154    0.6257 C.ar      1 <0>         0.0892
     27 F1         15.5813   -3.0205    1.2042 F         1 <0>        -0.1285
     28 Cl1        15.9491   -7.9849    0.2279 Cl        1 <0>        -0.0516
     29 H1         -0.9626    1.8994   -0.0786 H         1 <0>         0.1385
     30 H2          1.1467    3.1637   -0.0941 H         1 <0>         0.1359
     31 H3          3.3357   -0.5267   -0.0990 H         1 <0>         0.1481
     32 H4         -0.9288   -0.5598   -0.0804 H         1 <0>         0.1365
     33 H5          3.6388    3.2353   -0.1054 H         1 <0>         0.1274
     34 H6          5.9768    3.2045   -0.1159 H         1 <0>         0.4016
     35 H7         11.4010   -0.8430   -1.0256 H         1 <0>         0.1287
     36 H8         11.4049   -0.8485    0.7543 H         1 <0>         0.1287
     37 H9         13.6885   -1.9643   -0.2094 H         1 <0>         0.4192
     38 H10        12.3488   -5.0704   -1.1885 H         1 <0>         0.1618
     39 H11        13.5087   -7.2350   -1.0314 H         1 <0>         0.1476
     40 H12        16.6212   -5.4138    1.2497 H         1 <0>         0.1523
     41 H13         8.6243    3.0693   -0.1276 H         1 <0>         0.4396
@<TRIPOS>BOND
     1    1    6 ar
     2    1    2 ar
     3    1   29 1
     4    2    3 ar
     5    2   30 1
     6    3    4 ar
     7    3    8 1
     8    4    5 ar
     9    4   31 1
    10    5    6 ar
    11    5    7 1
    12    6   32 1
    13    8    9 2
    14    8   33 1
    15    9   10 1
    16   10   11 1
    17   10   34 1
    18   11   15 1
    19   11   12 2
    20   12   13 1
    21   13   14 2
    22   13   16 1
    23   14   15 1
    24   15   41 1
    25   16   17 1
    26   17   18 1
    27   17   35 1
    28   17   36 1
    29   18   19 2
    30   18   20 am
    31   20   21 1
    32   20   37 1
    33   21   26 ar
    34   21   22 ar
    35   22   23 ar
    36   22   38 1
    37   23   24 ar
    38   23   39 1
    39   24   25 ar
    40   24   28 1
    41   25   26 ar
    42   25   40 1
    43   26   27 1
@<TRIPOS>MOLECULE
ZINC09746527
   48    51     0     0     0
SMALL
USER_CHARGES
4-(1-adamantylmethylamino)-1,3-dimethyl-2,6-dioxo-pyrimidine-5-carbonitrile
@<TRIPOS>ATOM
      1 C1         -0.4594    7.1756   -2.6576 C.3       1 <0>         0.0752
      2 N1         -1.5117    7.7864   -1.8415 N.am      1 <0>        -0.5102
      3 C2         -2.3498    6.9897   -1.1095 C.2       1 <0>         0.4735
      4 C3         -3.3533    7.5864   -0.3391 C.2       1 <0>        -0.2591
      5 C4         -3.4557    9.0035   -0.3400 C.2       1 <0>         0.5739
      6 O1         -4.3140    9.5590    0.3215 O.2       1 <0>        -0.4986
      7 N2         -2.5958    9.7260   -1.0849 N.am      1 <0>        -0.5520
      8 C5         -1.6448    9.1239   -1.8193 C.2       1 <0>         0.6993
      9 O2         -0.8856    9.8060   -2.4797 O.2       1 <0>        -0.5166
     10 C6         -2.6994   11.1873   -1.0947 C.3       1 <0>         0.0785
     11 C7         -4.2537    6.7875    0.4365 C.1       1 <0>         0.2753
     12 N3         -4.9680    6.1537    1.0518 N.1       1 <0>        -0.3965
     13 N4         -2.2122    5.6330   -1.1353 N.pl3     1 <0>        -0.6508
     14 C8         -1.3961    5.1651   -0.0070 C.3       1 <0>         0.0710
     15 C9         -1.1506    3.6612   -0.1443 C.3       1 <0>        -0.0497
     16 C10        -0.4145    3.3823   -1.4563 C.3       1 <0>        -0.0969
     17 C11        -0.1690    1.8783   -1.5936 C.3       1 <0>        -0.0868
     18 C12         0.6809    1.3910   -0.4184 C.3       1 <0>        -0.1096
     19 C13        -0.0551    1.6699    0.8936 C.3       1 <0>        -0.0837
     20 C14        -0.3006    3.1738    1.0309 C.3       1 <0>        -0.1025
     21 C15        -1.3955    0.9323    0.8932 C.3       1 <0>        -0.1103
     22 C16        -2.2455    1.4196   -0.2820 C.3       1 <0>        -0.0834
     23 C17        -1.5094    1.1407   -1.5940 C.3       1 <0>        -0.1086
     24 C18        -2.4910    2.9235   -0.1447 C.3       1 <0>        -0.1079
     25 H1         -0.8147    7.0602   -3.6815 H         1 <0>         0.0858
     26 H2          0.4237    7.8145   -2.6493 H         1 <0>         0.0966
     27 H3         -0.2043    6.1978   -2.2491 H         1 <0>         0.1045
     28 H4         -3.3725   11.4985   -1.8935 H         1 <0>         0.0791
     29 H5         -3.0897   11.5302   -0.1365 H         1 <0>         0.0977
     30 H6         -1.7131   11.6203   -1.2613 H         1 <0>         0.0960
     31 H7         -3.1128    5.1783   -1.1432 H         1 <0>         0.3876
     32 H8         -1.9204    5.3638    0.9277 H         1 <0>         0.0598
     33 H9         -0.4411    5.6906   -0.0067 H         1 <0>         0.0900
     34 H10         0.5404    3.9078   -1.4560 H         1 <0>         0.0618
     35 H11        -1.0201    3.7295   -2.2935 H         1 <0>         0.0751
     36 H12         0.3553    1.6796   -2.5283 H         1 <0>         0.0708
     37 H13         0.8559    0.3196   -0.5162 H         1 <0>         0.0619
     38 H14         1.6359    1.9165   -0.4181 H         1 <0>         0.0619
     39 H15         0.5505    1.3227    1.7308 H         1 <0>         0.0714
     40 H16        -0.8250    3.3725    1.9656 H         1 <0>         0.0642
     41 H17         0.6543    3.6993    1.0311 H         1 <0>         0.0660
     42 H18        -1.9199    1.1310    1.8279 H         1 <0>         0.0616
     43 H19        -1.2206   -0.1392    0.7954 H         1 <0>         0.0631
     44 H20        -3.2004    0.8941   -0.2823 H         1 <0>         0.0707
     45 H21        -2.1150    1.4879   -2.4312 H         1 <0>         0.0624
     46 H22        -1.3345    0.0693   -1.6918 H         1 <0>         0.0617
     47 H23        -3.0965    3.2707   -0.9819 H         1 <0>         0.0631
     48 H24        -3.0153    3.1222    0.7900 H         1 <0>         0.0637
@<TRIPOS>BOND
     1    1    2 1
     2    1   25 1
     3    1   26 1
     4    1   27 1
     5    2    8 am
     6    2    3 1
     7    3    4 2
     8    3   13 1
     9    4    5 1
    10    4   11 1
    11    5    6 2
    12    5    7 am
    13    7    8 am
    14    7   10 1
    15    8    9 2
    16   10   28 1
    17   10   29 1
    18   10   30 1
    19   11   12 3
    20   13   14 1
    21   13   31 1
    22   14   15 1
    23   14   32 1
    24   14   33 1
    25   15   20 1
    26   15   24 1
    27   15   16 1
    28   16   17 1
    29   16   34 1
    30   16   35 1
    31   17   23 1
    32   17   18 1
    33   17   36 1
    34   18   19 1
    35   18   37 1
    36   18   38 1
    37   19   20 1
    38   19   21 1
    39   19   39 1
    40   20   40 1
    41   20   41 1
    42   21   22 1
    43   21   42 1
    44   21   43 1
    45   22   23 1
    46   22   24 1
    47   22   44 1
    48   23   45 1
    49   23   46 1
    50   24   47 1
    51   24   48 1
@<TRIPOS>MOLECULE
ZINC32847886
   40    43     0     0     0
SMALL
USER_CHARGES
5-oxo-N-(2-pyrrolidin-1-ylphenyl)thiazolo[3,2-a]pyrimidine-6-carboxamide
@<TRIPOS>ATOM
      1 C1          0.0496   -0.7124   -4.5493 C.ar      1 <0>        -0.1195
      2 C2          1.0493    0.0527   -3.9771 C.ar      1 <0>        -0.1199
      3 C3          0.7789    0.8339   -2.8692 C.ar      1 <0>        -0.1496
      4 C4         -0.4982    0.8519   -2.3282 C.ar      1 <0>         0.0615
      5 C5         -1.5049    0.0757   -2.9020 C.ar      1 <0>         0.1463
      6 C6         -1.2260   -0.7006   -4.0168 C.ar      1 <0>        -0.1220
      7 N1         -2.7957    0.0847   -2.3572 N.am      1 <0>        -0.6670
      8 C7         -3.8579   -0.2010   -3.1360 C.2       1 <0>         0.5846
      9 O1         -3.6909   -0.5346   -4.2945 O.2       1 <0>        -0.5336
     10 C8         -5.2157   -0.1101   -2.5872 C.2       1 <0>        -0.3420
     11 C9         -6.3285   -0.2869   -3.4174 C.2       1 <0>         0.2760
     12 N2         -7.5365   -0.2024   -2.8858 N.2       1 <0>        -0.5018
     13 C10        -7.7089    0.0517   -1.6056 C.2       1 <0>         0.3104
     14 N3         -6.6863    0.2442   -0.7204 N.am      1 <0>        -0.4716
     15 C11        -5.4153    0.1626   -1.2168 C.2       1 <0>         0.5480
     16 O2         -4.4586    0.3241   -0.4792 O.2       1 <0>        -0.5106
     17 C12        -7.0357    0.5012    0.5848 C.2       1 <0>         0.0366
     18 C13        -8.3233    0.5509    0.9260 C.2       1 <0>        -0.1801
     19 S1         -9.1287    0.2263   -0.6325 S.3       1 <0>         0.2214
     20 N4         -0.7742    1.6418   -1.2069 N.pl3     1 <0>        -0.4683
     21 C14        -1.7462    2.7154   -1.5382 C.3       1 <0>         0.0325
     22 C15        -1.5446    3.7795   -0.4380 C.3       1 <0>        -0.1238
     23 C16        -0.1040    3.5535    0.0747 C.3       1 <0>        -0.1197
     24 C17         0.4389    2.3733   -0.7593 C.3       1 <0>         0.0286
     25 H1          0.2662   -1.3212   -5.4146 H         1 <0>         0.1239
     26 H2          2.0443    0.0396   -4.3968 H         1 <0>         0.1219
     27 H3          1.5622    1.4300   -2.4246 H         1 <0>         0.1314
     28 H4         -2.0043   -1.2997   -4.4661 H         1 <0>         0.1550
     29 H5         -2.9422    0.3250   -1.2938 H         1 <0>         0.4511
     30 H6         -6.2031   -0.4920   -4.4703 H         1 <0>         0.2011
     31 H7         -6.2705    0.6622    1.3297 H         1 <0>         0.1971
     32 H8         -8.7641    0.7391    1.8938 H         1 <0>         0.2285
     33 H9         -1.5242    3.1150   -2.5387 H         1 <0>         0.0492
     34 H10        -2.7660    2.3033   -1.5260 H         1 <0>         0.0814
     35 H11        -1.6695    4.7829   -0.8711 H         1 <0>         0.0716
     36 H12        -2.2881    3.6288    0.3585 H         1 <0>         0.0735
     37 H13         0.4885    4.4669   -0.0821 H         1 <0>         0.0736
     38 H14        -0.1302    3.3132    1.1478 H         1 <0>         0.0755
     39 H15         1.0701    1.7029   -0.1575 H         1 <0>         0.0876
     40 H16         1.0039    2.7184   -1.6377 H         1 <0>         0.0612
@<TRIPOS>BOND
     1    1    6 ar
     2    1    2 ar
     3    1   25 1
     4    2    3 ar
     5    2   26 1
     6    3    4 ar
     7    3   27 1
     8    4    5 ar
     9    4   20 1
    10    5    6 ar
    11    5    7 1
    12    6   28 1
    13    7    8 am
    14    7   29 1
    15    8    9 2
    16    8   10 1
    17   10   15 1
    18   10   11 2
    19   11   12 1
    20   11   30 1
    21   12   13 2
    22   13   19 1
    23   13   14 1
    24   14   15 am
    25   14   17 1
    26   15   16 2
    27   17   18 2
    28   17   31 1
    29   18   19 1
    30   18   32 1
    31   20   24 1
    32   20   21 1
    33   21   22 1
    34   21   33 1
    35   21   34 1
    36   22   23 1
    37   22   35 1
    38   22   36 1
    39   23   24 1
    40   23   37 1
    41   23   38 1
    42   24   39 1
    43   24   40 1
@<TRIPOS>MOLECULE
ZINC44442870
   37    40     0     0     0
SMALL
USER_CHARGES

@<TRIPOS>ATOM
      1 C1         -2.5270   -0.7559   -0.6784 C.3       1 <0>        -0.0852
      2 C2         -1.0874   -0.9880   -0.2980 C.2       1 <0>         0.1534
      3 C3          0.0102   -0.8100   -1.1249 C.2       1 <0>        -0.1648
      4 N1          1.1238   -1.1345   -0.3717 N.pl3     1 <0>        -0.3271
      5 C4          2.4528   -1.1457   -0.6582 C.2       1 <0>         0.0504
      6 C5          3.3569   -1.5124    0.2787 C.2       1 <0>        -0.1268
      7 C6          2.9296   -1.8862    1.5603 C.2       1 <0>        -0.0871
      8 C7          1.5992   -1.8777    1.8558 C.2       1 <0>        -0.0812
      9 C8          0.6752   -1.4932    0.8676 C.2       1 <0>         0.2529
     10 N2         -0.6528   -1.3914    0.8849 N.2       1 <0>        -0.4874
     11 C9         -0.0054   -0.3811   -2.4758 C.2       1 <0>         0.6155
     12 O1         -0.1175    0.8030   -2.7374 O.2       1 <0>        -0.4721
     13 N3          0.1038   -1.2836   -3.4707 N.am      1 <0>        -0.6022
     14 C10         0.1953   -0.8565   -4.7884 C.2       1 <0>         0.3121
     15 N4          0.3017   -1.5717   -5.8929 N.2       1 <0>        -0.5285
     16 C11         0.3789   -0.9930   -7.0821 C.2       1 <0>         0.1194
     17 C12         0.3477    0.3709   -7.1676 C.2       1 <0>        -0.2324
     18 S1          0.1923    0.8077   -5.4406 S.3       1 <0>         0.1308
     19 C13         0.4984   -1.8173   -8.3093 C.ar      1 <0>        -0.0759
     20 C14         0.4204   -3.2115   -8.2391 C.ar      1 <0>        -0.0445
     21 C15         0.5375   -3.9353   -9.4129 C.ar      1 <0>        -0.1734
     22 C16         0.7262   -3.2627  -10.6068 C.ar      1 <0>         0.1019
     23 N5          0.7963   -1.9461  -10.6418 N.ar      1 <0>        -0.4813
     24 C17         0.6846   -1.2146   -9.5519 C.ar      1 <0>         0.1161
     25 H1         -2.7972    0.2781   -0.4644 H         1 <0>         0.0898
     26 H2         -2.6580   -0.9530   -1.7424 H         1 <0>         0.0745
     27 H3         -3.1671   -1.4251   -0.1034 H         1 <0>         0.0892
     28 H4          2.7899   -0.8594   -1.6435 H         1 <0>         0.1628
     29 H5          4.4098   -1.5175    0.0387 H         1 <0>         0.1593
     30 H6          3.6505   -2.1795    2.3091 H         1 <0>         0.1518
     31 H7          1.2575   -2.1639    2.8395 H         1 <0>         0.1603
     32 H8          0.1185   -2.2317   -3.2661 H         1 <0>         0.4291
     33 H9          0.3983    1.0083   -8.0379 H         1 <0>         0.2032
     34 H10         0.2729   -3.7109   -7.2929 H         1 <0>         0.1422
     35 H11         0.4824   -5.0138   -9.3969 H         1 <0>         0.1388
     36 H12         0.8179   -3.8245  -11.5246 H         1 <0>         0.1588
     37 H13         0.7426   -0.1384   -9.6214 H         1 <0>         0.1579
@<TRIPOS>BOND
     1    1    2 1
     2    1   25 1
     3    1   26 1
     4    1   27 1
     5    2   10 1
     6    2    3 2
     7    3    4 1
     8    3   11 1
     9    4    9 1
    10    4    5 1
    11    5    6 2
    12    5   28 1
    13    6    7 1
    14    6   29 1
    15    7    8 2
    16    7   30 1
    17    8    9 1
    18    8   31 1
    19    9   10 2
    20   11   12 2
    21   11   13 am
    22   13   14 1
    23   13   32 1
    24   14   18 1
    25   14   15 2
    26   15   16 1
    27   16   17 2
    28   16   19 1
    29   17   18 1
    30   17   33 1
    31   19   24 ar
    32   19   20 ar
    33   20   21 ar
    34   20   34 1
    35   21   22 ar
    36   21   35 1
    37   22   23 ar
    38   22   36 1
    39   23   24 ar
    40   24   37 1
@<TRIPOS>MOLECULE
ZINC05913972
   31    33     0     0     0
SMALL
USER_CHARGES

@<TRIPOS>ATOM
      1 C1         -0.0422    1.4479   -0.2402 C.3       1 <0>         0.0776
      2 N1         -0.0071   -0.0089   -0.0896 N.am      1 <0>        -0.5440
      3 C2         -1.1186   -0.7937    0.1987 C.ar      1 <0>         0.1933
      4 C3         -2.4531   -0.4637    0.4089 C.ar      1 <0>        -0.1263
      5 C4         -3.3762   -1.4517    0.6853 C.ar      1 <0>        -0.0323
      6 C5         -2.9880   -2.7799    0.7568 C.ar      1 <0>        -0.1151
      7 C6         -1.6668   -3.1264    0.5509 C.ar      1 <0>        -0.0252
      8 C7         -0.7302   -2.1375    0.2714 C.ar      1 <0>        -0.1559
      9 C8          0.7272   -2.1666    0.0068 C.2       1 <0>         0.0726
     10 N2          1.5124   -3.2167   -0.0249 N.2       1 <0>        -0.1066
     11 N3          0.9664   -4.5029    0.0760 N.am      1 <0>        -0.5694
     12 C9          1.7786   -5.5746    0.1670 C.2       1 <0>         0.6248
     13 O1          2.9862   -5.4249    0.1615 O.2       1 <0>        -0.4635
     14 C10         1.2077   -6.9195    0.2724 C.2       1 <0>        -0.0941
     15 C11         1.9129   -8.0857    0.3760 C.2       1 <0>        -0.0944
     16 C12         0.9699   -9.1217    0.4526 C.2       1 <0>        -0.2242
     17 C13        -0.2541   -8.5511    0.3934 C.2       1 <0>         0.0111
     18 O2         -0.1067   -7.2239    0.2902 O.3       1 <0>        -0.1674
     19 C14         1.1021   -0.7567   -0.2183 C.2       1 <0>         0.5907
     20 O3          2.2183   -0.3443   -0.4733 O.2       1 <0>        -0.4562
     21 Br1        -4.2677   -4.1190    1.1373 Br        1 <0>        -0.0293
     22 H1          0.9589    1.8138   -0.4682 H         1 <0>         0.0993
     23 H2         -0.7196    1.7130   -1.0519 H         1 <0>         0.0806
     24 H3         -0.3920    1.9007    0.6876 H         1 <0>         0.0809
     25 H4         -2.7678    0.5681    0.3561 H         1 <0>         0.1472
     26 H5         -4.4106   -1.1872    0.8476 H         1 <0>         0.1505
     27 H6         -1.3625   -4.1612    0.6070 H         1 <0>         0.1313
     28 H7          0.0037   -4.6222    0.0803 H         1 <0>         0.3975
     29 H8          2.9877   -8.1896    0.3945 H         1 <0>         0.1667
     30 H9          1.1821  -10.1769    0.5418 H         1 <0>         0.1635
     31 H10        -1.1961   -9.0783    0.4275 H         1 <0>         0.2165
@<TRIPOS>BOND
     1    1    2 1
     2    1   22 1
     3    1   23 1
     4    1   24 1
     5    2   19 am
     6    2    3 1
     7    3    8 ar
     8    3    4 ar
     9    4    5 ar
    10    4   25 1
    11    5    6 ar
    12    5   26 1
    13    6    7 ar
    14    6   21 1
    15    7    8 ar
    16    7   27 1
    17    8    9 1
    18    9   10 2
    19    9   19 1
    20   10   11 1
    21   11   12 am
    22   11   28 1
    23   12   13 2
    24   12   14 1
    25   14   18 1
    26   14   15 2
    27   15   16 1
    28   15   29 1
    29   16   17 2
    30   16   30 1
    31   17   18 1
    32   17   31 1
    33   19   20 2
@<TRIPOS>MOLECULE
ZINC66600506
   55    57     0     0     0
SMALL
USER_CHARGES

@<TRIPOS>ATOM
      1 C1         -0.0259    1.5269    0.0179 C.3       1 <0>        -0.1392
      2 C2         -0.0017   -0.0028    0.0063 C.3       1 <0>        -0.0781
      3 C3          0.7841   -0.5096   -1.2207 C.3       1 <0>        -0.1173
      4 C4          2.2134   -0.7607   -0.6792 C.3       1 <0>        -0.1245
      5 C5          1.9473   -1.3351    0.7344 C.3       1 <0>        -0.1254
      6 C6          0.7378   -0.5277    1.2494 C.3       1 <0>        -0.1135
      7 C7         -1.4306   -0.5490   -0.0230 C.3       1 <0>         0.1496
      8 N1         -2.1177   -0.0553   -1.2190 N.am      1 <0>        -0.7433
      9 C8         -3.3963   -0.4093   -1.4560 C.2       1 <0>         0.7084
     10 O1         -3.9501   -1.2108   -0.7285 O.2       1 <0>        -0.5875
     11 N2         -4.0612    0.1253   -2.4994 N.am      1 <0>        -0.6310
     12 C9         -3.3729    1.0041   -3.4548 C.3       1 <0>         0.1136
     13 C10        -4.1526    2.3180   -3.5662 C.3       1 <0>        -0.1174
     14 C11        -5.6081    2.0137   -3.9282 C.3       1 <0>        -0.1058
     15 C12        -6.2440    1.1669   -2.8233 C.3       1 <0>        -0.1238
     16 C13        -5.4866   -0.1645   -2.7065 C.3       1 <0>         0.1330
     17 C14        -6.3703    3.3057   -4.0721 C.2       1 <0>         0.5229
     18 O2         -5.9901    4.3017   -3.4939 O.2       1 <0>        -0.5326
     19 N3         -7.4745    3.3544   -4.8433 N.am      1 <0>        -0.6175
     20 C15        -7.8990    2.1875   -5.6331 C.3       1 <0>         0.0683
     21 C16        -9.3815    1.9232   -5.3466 C.3       1 <0>         0.0456
     22 O3        -10.1221    3.1294   -5.5478 O.3       1 <0>        -0.3770
     23 C17        -9.7551    4.1951   -4.6685 C.3       1 <0>         0.0473
     24 C18        -8.2948    4.5740   -4.9158 C.3       1 <0>         0.0756
     25 H1          0.9958    1.9065    0.0138 H         1 <0>         0.0608
     26 H2         -0.5515    1.8887   -0.8659 H         1 <0>         0.0516
     27 H3         -0.5394    1.8754    0.9140 H         1 <0>         0.0588
     28 H4          0.3499   -1.4364   -1.5956 H         1 <0>         0.0693
     29 H5          0.8005    0.2491   -2.0032 H         1 <0>         0.0647
     30 H6          2.7391   -1.4873   -1.2987 H         1 <0>         0.0663
     31 H7          2.7728    0.1728   -0.6178 H         1 <0>         0.0670
     32 H8          1.7009   -2.3953    0.6752 H         1 <0>         0.0662
     33 H9          2.8125   -1.1790    1.3787 H         1 <0>         0.0662
     34 H10         1.0795    0.3074    1.8609 H         1 <0>         0.0702
     35 H11         0.0791   -1.1723    1.8313 H         1 <0>         0.0687
     36 H12        -1.4027   -1.6385   -0.0437 H         1 <0>         0.0683
     37 H13        -1.9652   -0.2161    0.8666 H         1 <0>         0.0655
     38 H14        -1.6523    0.5263   -1.8404 H         1 <0>         0.3949
     39 H15        -2.3622    1.2078   -3.1011 H         1 <0>         0.0799
     40 H16        -3.3302    0.5206   -4.4307 H         1 <0>         0.0736
     41 H17        -4.1173    2.8440   -2.6122 H         1 <0>         0.0818
     42 H18        -3.7073    2.9406   -4.3422 H         1 <0>         0.0808
     43 H19        -5.6412    1.4659   -4.8700 H         1 <0>         0.0965
     44 H20        -6.1890    1.7038   -1.8763 H         1 <0>         0.0771
     45 H21        -7.2872    0.9703   -3.0704 H         1 <0>         0.0792
     46 H22        -5.6128   -0.7414   -3.6227 H         1 <0>         0.0695
     47 H23        -5.8710   -0.7321   -1.8591 H         1 <0>         0.1003
     48 H24        -7.7611    2.3929   -6.6946 H         1 <0>         0.0814
     49 H25        -7.3089    1.3167   -5.3474 H         1 <0>         0.0983
     50 H26        -9.7511    1.1521   -6.0225 H         1 <0>         0.1095
     51 H27        -9.4995    1.5913   -4.3151 H         1 <0>         0.0579
     52 H28       -10.3934    5.0585   -4.8565 H         1 <0>         0.1095
     53 H29        -9.8744    3.8715   -3.6345 H         1 <0>         0.0565
     54 H30        -7.9667    5.2827   -4.1554 H         1 <0>         0.1018
     55 H31        -8.1974    5.0237   -5.9039 H         1 <0>         0.0772
@<TRIPOS>BOND
     1    1    2 1
     2    1   25 1
     3    1   26 1
     4    1   27 1
     5    2    6 1
     6    2    3 1
     7    2    7 1
     8    3    4 1
     9    3   28 1
    10    3   29 1
    11    4    5 1
    12    4   30 1
    13    4   31 1
    14    5    6 1
    15    5   32 1
    16    5   33 1
    17    6   34 1
    18    6   35 1
    19    7    8 1
    20    7   36 1
    21    7   37 1
    22    8    9 am
    23    8   38 1
    24    9   10 2
    25    9   11 am
    26   11   16 1
    27   11   12 1
    28   12   13 1
    29   12   39 1
    30   12   40 1
    31   13   14 1
    32   13   41 1
    33   13   42 1
    34   14   15 1
    35   14   17 1
    36   14   43 1
    37   15   16 1
    38   15   44 1
    39   15   45 1
    40   16   46 1
    41   16   47 1
    42   17   18 2
    43   17   19 am
    44   19   24 1
    45   19   20 1
    46   20   21 1
    47   20   48 1
    48   20   49 1
    49   21   22 1
    50   21   50 1
    51   21   51 1
    52   22   23 1
    53   23   24 1
    54   23   52 1
    55   23   53 1
    56   24   54 1
    57   24   55 1
@<TRIPOS>MOLECULE
ZINC06833582
   53    55     0     0     0
SMALL
USER_CHARGES
4-(2-fluorobenzoyl)-N-isopropyl-9-methyl-1-oxa-4-azaspiro[4.5]decane-3-carboxamide
@<TRIPOS>ATOM
      1 C1          0.7264   -2.0316    1.2562 C.3       1 <0>        -0.1499
      2 C2          0.7117   -0.5018    1.2753 C.3       1 <0>        -0.0847
      3 H1          0.2199   -0.1545    2.1840 H         1 <0>         0.0841
      4 C3         -0.0495    0.0163    0.0535 C.3       1 <0>        -0.1348
      5 C4         -0.0687    1.5460    0.0739 C.3       1 <0>        -0.1158
      6 C5          1.3670    2.0744    0.0370 C.3       1 <0>        -0.1876
      7 C6          2.1331    1.5516    1.2526 C.3       1 <0>         0.3209
      8 C7          2.1489    0.0227    1.2407 C.3       1 <0>        -0.2021
      9 N1          3.5125    2.0610    1.2254 N.am      1 <0>        -0.6203
     10 C8          3.6908    2.8280    2.4786 C.3       1 <0>         0.0856
     11 H2          3.5374    3.8931    2.3047 H         1 <0>         0.1158
     12 C9          2.5782    2.2550    3.3918 C.3       1 <0>         0.0485
     13 O1          1.5013    2.0166    2.4557 O.3       1 <0>        -0.3373
     14 C10         5.0525    2.5730    3.0716 C.2       1 <0>         0.5066
     15 O2          5.8579    1.8934    2.4712 O.2       1 <0>        -0.4892
     16 N2          5.3755    3.1001    4.2693 N.am      1 <0>        -0.7272
     17 C11         6.6992    2.8522    4.8458 C.3       1 <0>         0.1378
     18 C12         7.0539    3.9829    5.8136 C.3       1 <0>        -0.1606
     19 C13         6.6859    1.5210    5.5998 C.3       1 <0>        -0.1631
     20 C14         4.4285    1.8687    0.2557 C.2       1 <0>         0.5887
     21 O3          5.5088    2.4224    0.3214 O.2       1 <0>        -0.4753
     22 C15         4.1199    0.9852   -0.8869 C.ar      1 <0>        -0.1862
     23 C16         2.8444    0.4328   -1.0224 C.ar      1 <0>        -0.1450
     24 C17         2.5626   -0.3907   -2.0915 C.ar      1 <0>        -0.1580
     25 C18         3.5399   -0.6715   -3.0314 C.ar      1 <0>        -0.0542
     26 C19         4.8052   -0.1300   -2.9059 C.ar      1 <0>        -0.1745
     27 C20         5.1016    0.7023   -1.8416 C.ar      1 <0>         0.1701
     28 F1          6.3368    1.2363   -1.7223 F         1 <0>        -0.1127
     29 H3          1.2183   -2.3789    0.3476 H         1 <0>         0.0565
     30 H4          1.2688   -2.4007    2.1267 H         1 <0>         0.0562
     31 H5         -0.2973   -2.4051    1.2806 H         1 <0>         0.0612
     32 H6         -1.0722   -0.3601    0.0764 H         1 <0>         0.0763
     33 H7          0.4441   -0.3287   -0.8550 H         1 <0>         0.0694
     34 H8         -0.6137    1.9142   -0.7953 H         1 <0>         0.0754
     35 H9         -0.5597    1.8912    0.9837 H         1 <0>         0.0783
     36 H10         1.8565    1.7333   -0.8752 H         1 <0>         0.1287
     37 H11         1.3539    3.1641    0.0569 H         1 <0>         0.0846
     38 H12         2.6899   -0.3419    2.1139 H         1 <0>         0.0774
     39 H13         2.6422   -0.3286    0.3345 H         1 <0>         0.1303
     40 H14         2.9003    1.3235    3.8573 H         1 <0>         0.0805
     41 H15         2.2819    2.9841    4.1459 H         1 <0>         0.1211
     42 H16         4.7314    3.6437    4.7495 H         1 <0>         0.3978
     43 H17         7.4409    2.8106    4.0481 H         1 <0>         0.0889
     44 H18         6.3122    4.0245    6.6112 H         1 <0>         0.0614
     45 H19         8.0389    3.7985    6.2425 H         1 <0>         0.0741
     46 H20         7.0634    4.9313    5.2764 H         1 <0>         0.0622
     47 H21         6.4332    0.7154    4.9103 H         1 <0>         0.0584
     48 H22         7.6709    1.3365    6.0287 H         1 <0>         0.0669
     49 H23         5.9442    1.5626    6.3974 H         1 <0>         0.0569
     50 H24         2.0802    0.6500   -0.2908 H         1 <0>         0.2354
     51 H25         1.5763   -0.8180   -2.1965 H         1 <0>         0.1391
     52 H26         3.3122   -1.3171   -3.8667 H         1 <0>         0.1393
     53 H27         5.5626   -0.3533   -3.6427 H         1 <0>         0.1440
@<TRIPOS>BOND
     1    1    2 1
     2    1   29 1
     3    1   30 1
     4    1   31 1
     5    2    3 1
     6    2    8 1
     7    2    4 1
     8    4    5 1
     9    4   32 1
    10    4   33 1
    11    5    6 1
    12    5   34 1
    13    5   35 1
    14    6    7 1
    15    6   36 1
    16    6   37 1
    17    7   13 1
    18    7    8 1
    19    7    9 1
    20    8   38 1
    21    8   39 1
    22    9   10 1
    23    9   20 am
    24   10   11 1
    25   10   12 1
    26   10   14 1
    27   12   13 1
    28   12   40 1
    29   12   41 1
    30   14   15 2
    31   14   16 am
    32   16   17 1
    33   16   42 1
    34   17   18 1
    35   17   19 1
    36   17   43 1
    37   18   44 1
    38   18   45 1
    39   18   46 1
    40   19   47 1
    41   19   48 1
    42   19   49 1
    43   20   21 2
    44   20   22 1
    45   22   27 ar
    46   22   23 ar
    47   23   24 ar
    48   23   50 1
    49   24   25 ar
    50   24   51 1
    51   25   26 ar
    52   25   52 1
    53   26   27 ar
    54   26   53 1
    55   27   28 1
@<TRIPOS>MOLECULE
ZINC13766316
   34    36     0     0     0
SMALL
USER_CHARGES
(5Z)-5-[(4-bromophenyl)methylene]-1-phenyl-hexahydropyrimidine-2,4,6-trione
@<TRIPOS>ATOM
      1 C1         -7.3283    1.0746    0.3080 C.ar      1 <0>        -0.1005
      2 C2         -6.8790    0.3915    1.4231 C.ar      1 <0>        -0.1092
      3 C3         -5.6435   -0.2257    1.4054 C.ar      1 <0>        -0.0911
      4 C4         -4.8525   -0.1597    0.2663 C.ar      1 <0>         0.1219
      5 C5         -5.3040    0.5315   -0.8500 C.ar      1 <0>        -0.0915
      6 C6         -6.5429    1.1418   -0.8281 C.ar      1 <0>        -0.1094
      7 N1         -3.5982   -0.7845    0.2454 N.am      1 <0>        -0.5166
      8 C7         -2.5130   -0.0970    0.6572 C.2       1 <0>         0.5606
      9 O1         -2.6107    1.0519    1.0442 O.2       1 <0>        -0.4526
     10 C8         -1.2020   -0.7764    0.6195 C.2       1 <0>        -0.2762
     11 C9         -0.0470   -0.1366    1.0195 C.2       1 <0>         0.1295
     12 C10        -0.0553    1.3091    1.2585 C.ar      1 <0>        -0.1018
     13 C11        -0.6547    2.1732    0.3316 C.ar      1 <0>        -0.0276
     14 C12        -0.6619    3.5306    0.5662 C.ar      1 <0>        -0.0986
     15 C13        -0.0703    4.0433    1.7098 C.ar      1 <0>        -0.0609
     16 C14         0.5291    3.1966    2.6288 C.ar      1 <0>        -0.1027
     17 C15         0.5411    1.8363    2.4123 C.ar      1 <0>        -0.0696
     18 Br1        -0.0805    5.9090    2.0179 Br        1 <0>        -0.0412
     19 C16        -1.1839   -2.1738    0.1401 C.2       1 <0>         0.5724
     20 O2         -0.1440   -2.8020    0.0843 O.2       1 <0>        -0.4779
     21 N2         -2.3529   -2.7333   -0.2344 N.am      1 <0>        -0.6609
     22 C17        -3.5060   -2.0527   -0.1780 C.2       1 <0>         0.7103
     23 O3         -4.5236   -2.6164   -0.5296 O.2       1 <0>        -0.5089
     24 H1         -8.2947    1.5564    0.3243 H         1 <0>         0.1313
     25 H2         -7.4950    0.3401    2.3088 H         1 <0>         0.1331
     26 H3         -5.2933   -0.7594    2.2765 H         1 <0>         0.1253
     27 H4         -4.6890    0.5883   -1.7359 H         1 <0>         0.1255
     28 H5         -6.8964    1.6761   -1.6975 H         1 <0>         0.1332
     29 H6          0.8634   -0.7014    1.1565 H         1 <0>         0.1685
     30 H7         -1.1128    1.7756   -0.5619 H         1 <0>         0.1278
     31 H8         -1.1265    4.1974   -0.1450 H         1 <0>         0.1378
     32 H9          0.9885    3.6045    3.5171 H         1 <0>         0.1399
     33 H10         1.0083    1.1778    3.1296 H         1 <0>         0.1403
     34 H11        -2.3590   -3.6500   -0.5517 H         1 <0>         0.4396
@<TRIPOS>BOND
     1    1    6 ar
     2    1    2 ar
     3    1   24 1
     4    2    3 ar
     5    2   25 1
     6    3    4 ar
     7    3   26 1
     8    4    5 ar
     9    4    7 1
    10    5    6 ar
    11    5   27 1
    12    6   28 1
    13    7   22 am
    14    7    8 am
    15    8    9 2
    16    8   10 1
    17   10   11 2
    18   10   19 1
    19   11   12 1
    20   11   29 1
    21   12   17 ar
    22   12   13 ar
    23   13   14 ar
    24   13   30 1
    25   14   15 ar
    26   14   31 1
    27   15   16 ar
    28   15   18 1
    29   16   17 ar
    30   16   32 1
    31   17   33 1
    32   19   20 2
    33   19   21 am
    34   21   22 am
    35   21   34 1
    36   22   23 2
@<TRIPOS>MOLECULE
ZINC12854555
   37    40     0     0     0
SMALL
USER_CHARGES

@<TRIPOS>ATOM
      1 C1         -0.0187    1.5258    0.0104 C.3       1 <0>        -0.1376
      2 C2          0.0021   -0.0041    0.0020 C.3       1 <0>         0.1795
      3 C3          0.7165   -0.5886   -1.2284 C.3       1 <0>        -0.1111
      4 C4          2.1460   -0.8020   -0.6765 C.3       1 <0>        -0.1398
      5 C5          1.9486   -0.9712    0.8120 C.2       1 <0>         0.5350
      6 O1          2.7912   -1.3914    1.5764 O.2       1 <0>        -0.4648
      7 N1          0.7037   -0.5896    1.1743 N.am      1 <0>        -0.6214
      8 C6         -0.1853   -0.6014    2.3480 C.3       1 <0>         0.1456
      9 H1         -0.2881    0.4145    2.7293 H         1 <0>         0.1209
     10 C7         -1.5853   -1.1504    1.9794 C.3       1 <0>        -0.0848
     11 S1         -1.6689   -0.7499    0.1824 S.3       1 <0>        -0.2536
     12 C8          0.4198   -1.4726    3.4184 C.2       1 <0>         0.4879
     13 O2          1.4813   -2.0254    3.2222 O.2       1 <0>        -0.3976
     14 N2         -0.2186   -1.6374    4.5939 N.am      1 <0>        -0.6169
     15 C9          0.3380   -2.4388    5.5785 C.2       1 <0>         0.3748
     16 N3          1.4669   -3.1066    5.5552 N.2       1 <0>        -0.4938
     17 C10         1.8897   -3.8553    6.5984 C.ar      1 <0>         0.0617
     18 C11         3.0776   -4.6188    6.7011 C.ar      1 <0>         0.1894
     19 C12         3.3582   -5.3289    7.8411 C.ar      1 <0>        -0.1797
     20 C13         2.4938   -5.3247    8.9290 C.ar      1 <0>         0.1510
     21 C14         1.3237   -4.5880    8.8614 C.ar      1 <0>        -0.1049
     22 C15         1.0357   -3.8749    7.7233 C.ar      1 <0>        -0.1078
     23 S2         -0.2960   -2.8188    7.2057 S.3       1 <0>         0.0487
     24 F1          2.7917   -6.0324   10.0405 F         1 <0>        -0.1163
     25 F2          3.9442   -4.6489    5.6650 F         1 <0>        -0.1096
     26 H2          1.0039    1.9031    0.0027 H         1 <0>         0.0758
     27 H3         -0.5459    1.8868   -0.8726 H         1 <0>         0.0862
     28 H4         -0.5289    1.8773    0.9072 H         1 <0>         0.0695
     29 H5          0.2674   -1.5352   -1.5290 H         1 <0>         0.0998
     30 H6          0.7178    0.1222   -2.0548 H         1 <0>         0.1020
     31 H7          2.5908   -1.6994   -1.1065 H         1 <0>         0.1140
     32 H8          2.7681    0.0691   -0.8820 H         1 <0>         0.1122
     33 H9         -1.6396   -2.2266    2.1438 H         1 <0>         0.1101
     34 H10        -2.3677   -0.6314    2.5332 H         1 <0>         0.1273
     35 H11        -1.0676   -1.1953    4.7508 H         1 <0>         0.4295
     36 H12         4.2707   -5.9041    7.8939 H         1 <0>         0.1626
     37 H13         0.6413   -4.5743    9.6983 H         1 <0>         0.1560
@<TRIPOS>BOND
     1    1    2 1
     2    1   26 1
     3    1   27 1
     4    1   28 1
     5    2    7 1
     6    2   11 1
     7    2    3 1
     8    3    4 1
     9    3   29 1
    10    3   30 1
    11    4    5 1
    12    4   31 1
    13    4   32 1
    14    5    6 2
    15    5    7 am
    16    7    8 1
    17    8    9 1
    18    8   10 1
    19    8   12 1
    20   10   11 1
    21   10   33 1
    22   10   34 1
    23   12   13 2
    24   12   14 am
    25   14   15 1
    26   14   35 1
    27   15   23 1
    28   15   16 2
    29   16   17 1
    30   17   22 ar
    31   17   18 ar
    32   18   19 ar
    33   18   25 1
    34   19   20 ar
    35   19   36 1
    36   20   21 ar
    37   20   24 1
    38   21   22 ar
    39   21   37 1
    40   22   23 1
@<TRIPOS>MOLECULE
ZINC49285352
   39    40     0     0     0
SMALL
USER_CHARGES

@<TRIPOS>ATOM
      1 C1         -0.0350    1.5016    0.0176 C.3       1 <0>        -0.0808
      2 C2         -0.0049   -0.0050    0.0048 C.2       1 <0>         0.1096
      3 C3          0.0075   -0.7024   -1.1563 C.2       1 <0>        -0.2788
      4 S1          0.0425   -2.3773   -0.5391 S.3       1 <0>         0.0622
      5 C4          0.0377   -2.0199    1.1054 C.2       1 <0>         0.3188
      6 N1          0.0161   -0.7042    1.1260 N.2       1 <0>        -0.5866
      7 N2          0.0571   -2.8980    2.1778 N.pl3     1 <0>        -0.5622
      8 C5          0.0925   -4.3415    1.8985 C.3       1 <0>         0.1276
      9 C6          1.0739   -5.0915    2.8031 C.3       1 <0>        -0.1565
     10 C7          2.3505   -4.2929    2.9726 C.3       1 <0>         0.1167
     11 N3          2.1584   -3.3633    4.0856 N.am      1 <0>        -0.6155
     12 C8          1.5059   -2.1049    3.9804 C.3       1 <0>         0.1096
     13 C9          0.0474   -2.3466    3.5215 C.3       1 <0>         0.1179
     14 C10         2.6324   -3.7252    5.2943 C.2       1 <0>         0.6999
     15 O1          2.5833   -2.9445    6.2252 O.2       1 <0>        -0.5832
     16 N4          3.1607   -4.9524    5.4711 N.am      1 <0>        -0.7431
     17 C11         3.5769   -5.3851    6.8074 C.3       1 <0>         0.1820
     18 C12         4.1298   -6.7851    6.7326 C.2       1 <0>        -0.1553
     19 C13         5.3936   -7.0062    7.0030 C.2       1 <0>        -0.1079
     20 Br1         3.0007   -8.2228    6.2489 Br        1 <0>        -0.0566
     21 H1          0.9851    1.8854    0.0142 H         1 <0>         0.0742
     22 H2         -0.5617    1.8620   -0.8661 H         1 <0>         0.0742
     23 H3         -0.5503    1.8472    0.9138 H         1 <0>         0.0733
     24 H4         -0.0016   -0.3439   -2.1751 H         1 <0>         0.1901
     25 H5         -0.9061   -4.7532    2.0442 H         1 <0>         0.0743
     26 H6          0.3855   -4.4922    0.8594 H         1 <0>         0.0805
     27 H7          0.6154   -5.2502    3.7792 H         1 <0>         0.0805
     28 H8          1.3094   -6.0577    2.3569 H         1 <0>         0.0962
     29 H9          3.1792   -4.9657    3.1933 H         1 <0>         0.0812
     30 H10         2.5605   -3.7359    2.0595 H         1 <0>         0.0821
     31 H11         1.5085   -1.6087    4.9509 H         1 <0>         0.1128
     32 H12         2.0219   -1.4849    3.2473 H         1 <0>         0.0687
     33 H13        -0.4931   -1.4000    3.5240 H         1 <0>         0.0972
     34 H14        -0.4370   -3.0480    4.2007 H         1 <0>         0.0823
     35 H15         3.2654   -5.5491    4.7136 H         1 <0>         0.3982
     36 H16         4.3456   -4.7106    7.1847 H         1 <0>         0.0868
     37 H17         2.7181   -5.3690    7.4785 H         1 <0>         0.0832
     38 H18         6.0385   -6.1850    7.2793 H         1 <0>         0.1266
     39 H19         5.7898   -8.0095    6.9494 H         1 <0>         0.1195
@<TRIPOS>BOND
     1    1    2 1
     2    1   21 1
     3    1   22 1
     4    1   23 1
     5    2    6 1
     6    2    3 2
     7    3    4 1
     8    3   24 1
     9    4    5 1
    10    5    6 2
    11    5    7 1
    12    7   13 1
    13    7    8 1
    14    8    9 1
    15    8   25 1
    16    8   26 1
    17    9   10 1
    18    9   27 1
    19    9   28 1
    20   10   11 1
    21   10   29 1
    22   10   30 1
    23   11   12 1
    24   11   14 am
    25   12   13 1
    26   12   31 1
    27   12   32 1
    28   13   33 1
    29   13   34 1
    30   14   15 2
    31   14   16 am
    32   16   17 1
    33   16   35 1
    34   17   18 1
    35   17   36 1
    36   17   37 1
    37   18   19 2
    38   18   20 1
    39   19   38 1
    40   19   39 1
@<TRIPOS>MOLECULE
ZINC64337428
   48    52     0     0     0
SMALL
USER_CHARGES

@<TRIPOS>ATOM
      1 C1         -0.0065    1.2988   -0.2105 C.ar      1 <0>         0.3632
      2 N1          1.1108    2.0040   -0.2099 N.ar      1 <0>        -0.5898
      3 C2          2.2952    1.4480   -0.0126 C.ar      1 <0>         0.4876
      4 C3          2.3731    0.0444    0.2064 C.ar      1 <0>        -0.2440
      5 C4          3.5580   -0.7820    0.4429 C.2       1 <0>        -0.0803
      6 C5          3.3562   -2.1029    0.6236 C.2       1 <0>        -0.1492
      7 S1          1.6022   -2.3253    0.4924 S.3       1 <0>         0.1086
      8 C6          1.1409   -0.6392    0.1924 C.ar      1 <0>         0.1489
      9 N2          0.0027   -0.0051   -0.0124 N.ar      1 <0>        -0.5241
     10 C7          4.3941   -3.1532    0.8790 C.3       1 <0>        -0.0403
     11 C8          5.7712   -2.5669    0.5369 C.3       1 <0>        -0.1150
     12 C9          5.8931   -1.1872    1.1906 C.3       1 <0>        -0.1194
     13 C10         4.9664   -0.1955    0.4864 C.3       1 <0>        -0.0706
     14 N3          3.4422    2.2210   -0.0197 N.pl3     1 <0>        -0.6995
     15 C11         3.3423    3.6791   -0.1211 C.3       1 <0>         0.1332
     16 C12         4.7455    4.2886   -0.1072 C.3       1 <0>         0.0865
     17 C13         4.6299    5.8208   -0.0487 C.3       1 <0>         0.0288
     18 N4          5.9763    6.3637   -0.1656 N.3       1 <0>        -0.5277
     19 C14         6.1191    7.8255   -0.1404 C.3       1 <0>         0.0437
     20 C15         7.5374    8.0578   -0.7289 C.3       1 <0>        -0.1218
     21 C16         7.8229    6.8000   -1.5901 C.3       1 <0>        -0.1142
     22 C17         6.5319    5.9824   -1.4939 C.3       1 <0>         0.0212
     23 C18         6.7381    4.4747   -1.4760 C.3       1 <0>         0.0798
     24 O1          5.4484    3.8729   -1.2768 O.3       1 <0>        -0.3835
     25 H1         -0.9484    1.8018   -0.3723 H         1 <0>         0.2073
     26 H2          4.3700   -3.4454    1.9289 H         1 <0>         0.0874
     27 H3          4.1989   -4.0225    0.2510 H         1 <0>         0.0859
     28 H4          6.5532   -3.2230    0.9192 H         1 <0>         0.0779
     29 H5          5.8688   -2.4692   -0.5443 H         1 <0>         0.0703
     30 H6          5.6152   -1.2589    2.2422 H         1 <0>         0.0692
     31 H7          6.9229   -0.8390    1.1122 H         1 <0>         0.0736
     32 H8          5.3212   -0.0218   -0.5295 H         1 <0>         0.0832
     33 H9          4.9533    0.7454    1.0365 H         1 <0>         0.0738
     34 H10         4.3127    1.7977    0.0426 H         1 <0>         0.4162
     35 H11         2.8398    3.9450   -1.0511 H         1 <0>         0.0811
     36 H12         2.7707    4.0637    0.7235 H         1 <0>         0.0862
     37 H13         5.2797    3.9368    0.7753 H         1 <0>         0.0716
     38 H14         4.0135    6.1777   -0.8738 H         1 <0>         0.0493
     39 H15         4.1897    6.1232    0.9015 H         1 <0>         0.0915
     40 H16         5.3614    8.2965   -0.7666 H         1 <0>         0.0436
     41 H17         6.0612    8.1996    0.8817 H         1 <0>         0.0842
     42 H18         7.5480    8.9531   -1.3504 H         1 <0>         0.0714
     43 H19         8.2712    8.1430    0.0726 H         1 <0>         0.0752
     44 H20         8.0202    7.0819   -2.6244 H         1 <0>         0.0735
     45 H21         8.6621    6.2384   -1.1796 H         1 <0>         0.0762
     46 H22         5.8433    6.2687   -2.2889 H         1 <0>         0.0624
     47 H23         7.1584    4.1461   -2.4265 H         1 <0>         0.1012
     48 H24         7.4058    4.2009   -0.6592 H         1 <0>         0.0655
@<TRIPOS>BOND
     1    1    9 ar
     2    1    2 ar
     3    1   25 1
     4    2    3 ar
     5    3    4 ar
     6    3   14 1
     7    4    8 ar
     8    4    5 1
     9    5   13 1
    10    5    6 2
    11    6    7 1
    12    6   10 1
    13    7    8 1
    14    8    9 ar
    15   10   11 1
    16   10   26 1
    17   10   27 1
    18   11   12 1
    19   11   28 1
    20   11   29 1
    21   12   13 1
    22   12   30 1
    23   12   31 1
    24   13   32 1
    25   13   33 1
    26   14   15 1
    27   14   34 1
    28   15   16 1
    29   15   35 1
    30   15   36 1
    31   16   24 1
    32   16   17 1
    33   16   37 1
    34   17   18 1
    35   17   38 1
    36   17   39 1
    37   18   22 1
    38   18   19 1
    39   19   20 1
    40   19   40 1
    41   19   41 1
    42   20   21 1
    43   20   42 1
    44   20   43 1
    45   21   22 1
    46   21   44 1
    47   21   45 1
    48   22   23 1
    49   22   46 1
    50   23   24 1
    51   23   47 1
    52   23   48 1
@<TRIPOS>MOLECULE
ZINC04663677
   63    66     0     0     0
SMALL
USER_CHARGES
(4-anilino-2-ethyl-3-methyl-3,4-dihydro-2H-quinolin-1-yl)-(4-isopropylphenyl)-methanone
@<TRIPOS>ATOM
      1 C1          3.9137   -3.7447    1.6055 C.3       1 <0>        -0.1580
      2 C2          2.5959   -3.7375    0.8281 C.3       1 <0>        -0.1211
      3 C3          2.5495   -2.5112   -0.0855 C.3       1 <0>         0.1508
      4 H1          2.6824   -1.6047    0.5050 H         1 <0>         0.0840
      5 C4          3.6564   -2.6091   -1.1434 C.3       1 <0>        -0.1096
      6 H2          4.6247   -2.7013   -0.6514 H         1 <0>         0.1004
      7 C5          3.6353   -1.3426   -1.9990 C.3       1 <0>         0.2031
      8 H3          3.9608   -0.4953   -1.3955 H         1 <0>         0.0901
      9 C6          2.2459   -1.0789   -2.5163 C.ar      1 <0>        -0.1397
     10 C7          2.0871   -0.2642   -3.6252 C.ar      1 <0>        -0.0807
     11 C8          0.8252    0.0006   -4.1205 C.ar      1 <0>        -0.1488
     12 C9         -0.2893   -0.5474   -3.5119 C.ar      1 <0>        -0.0811
     13 C10        -0.1398   -1.3619   -2.4076 C.ar      1 <0>        -0.2123
     14 C11         1.1296   -1.6300   -1.9073 C.ar      1 <0>         0.1791
     15 N1          1.2600   -2.4627   -0.7882 N.am      1 <0>        -0.5625
     16 C12         0.2197   -3.2066   -0.3630 C.2       1 <0>         0.5740
     17 O1          0.4190   -4.2748    0.1820 O.2       1 <0>        -0.4884
     18 C13        -1.1634   -2.7237   -0.5593 C.ar      1 <0>        -0.1464
     19 C14        -1.4825   -1.3887   -0.3054 C.ar      1 <0>        -0.0623
     20 C15        -2.7740   -0.9430   -0.4967 C.ar      1 <0>        -0.1273
     21 C16        -3.7546   -1.8188   -0.9277 C.ar      1 <0>        -0.0446
     22 C17        -3.4464   -3.1447   -1.1753 C.ar      1 <0>        -0.1253
     23 C18        -2.1575   -3.6020   -0.9940 C.ar      1 <0>        -0.0655
     24 C19        -5.1645   -1.3262   -1.1289 C.3       1 <0>        -0.0620
     25 C20        -5.7081   -0.7818    0.1937 C.3       1 <0>        -0.1462
     26 C21        -5.1711   -0.2139   -2.1794 C.3       1 <0>        -0.1461
     27 N2          4.5495   -1.5090   -3.1316 N.pl3     1 <0>        -0.7373
     28 C22         5.1114   -0.3876   -3.7461 C.ar      1 <0>         0.2156
     29 C23         4.8000    0.8864   -3.2882 C.ar      1 <0>        -0.2002
     30 C24         5.3612    1.9929   -3.8950 C.ar      1 <0>        -0.0724
     31 C25         6.2239    1.8340   -4.9640 C.ar      1 <0>        -0.1784
     32 C26         6.5319    0.5674   -5.4257 C.ar      1 <0>        -0.0711
     33 C27         5.9784   -0.5435   -4.8202 C.ar      1 <0>        -0.1956
     34 C28         3.4109   -3.8312   -2.0306 C.3       1 <0>        -0.1456
     35 H4          3.9855   -4.6618    2.1903 H         1 <0>         0.0614
     36 H5          4.7483   -3.6934    0.9063 H         1 <0>         0.0569
     37 H6          3.9460   -2.8842    2.2737 H         1 <0>         0.0542
     38 H7          1.7612   -3.7009    1.5282 H         1 <0>         0.0796
     39 H8          2.5248   -4.6428    0.2251 H         1 <0>         0.0854
     40 H9          2.9539    0.1663   -4.1044 H         1 <0>         0.1365
     41 H10         0.7086    0.6368   -4.9854 H         1 <0>         0.1204
     42 H11        -1.2749   -0.3420   -3.9029 H         1 <0>         0.1222
     43 H12        -1.0091   -1.7915   -1.9322 H         1 <0>         0.1730
     44 H13        -0.7189   -0.7051    0.0353 H         1 <0>         0.1297
     45 H14        -3.0211    0.0908   -0.3056 H         1 <0>         0.1315
     46 H15        -4.2165   -3.8232   -1.5115 H         1 <0>         0.1317
     47 H16        -1.9181   -4.6370   -1.1883 H         1 <0>         0.1329
     48 H17        -5.7924   -2.1501   -1.4681 H         1 <0>         0.0815
     49 H18        -6.7279   -0.4255    0.0482 H         1 <0>         0.0614
     50 H19        -5.7034   -1.5742    0.9421 H         1 <0>         0.0574
     51 H20        -5.0803    0.0421    0.5329 H         1 <0>         0.0581
     52 H21        -4.7839   -0.6017   -3.1216 H         1 <0>         0.0574
     53 H22        -6.1909    0.1424   -2.3249 H         1 <0>         0.0613
     54 H23        -4.5433    0.6100   -1.8402 H         1 <0>         0.0586
     55 H24         4.7645   -2.3979   -3.4548 H         1 <0>         0.4011
     56 H25         4.1229    1.0113   -2.4562 H         1 <0>         0.1211
     57 H26         5.1227    2.9835   -3.5369 H         1 <0>         0.1199
     58 H27         6.6584    2.7011   -5.4392 H         1 <0>         0.1176
     59 H28         7.2057    0.4469   -6.2611 H         1 <0>         0.1202
     60 H29         6.2197   -1.5324   -5.1810 H         1 <0>         0.1181
     61 H30         2.4446   -3.7328   -2.5253 H         1 <0>         0.0600
     62 H31         4.1981   -3.8991   -2.7815 H         1 <0>         0.0559
     63 H32         3.4151   -4.7322   -1.4173 H         1 <0>         0.0666
@<TRIPOS>BOND
     1    1    2 1
     2    1   35 1
     3    1   36 1
     4    1   37 1
     5    2    3 1
     6    2   38 1
     7    2   39 1
     8    3    4 1
     9    3   15 1
    10    3    5 1
    11    5    6 1
    12    5    7 1
    13    5   34 1
    14    7    8 1
    15    7    9 1
    16    7   27 1
    17    9   14 ar
    18    9   10 ar
    19   10   11 ar
    20   10   40 1
    21   11   12 ar
    22   11   41 1
    23   12   13 ar
    24   12   42 1
    25   13   14 ar
    26   13   43 1
    27   14   15 1
    28   15   16 am
    29   16   17 2
    30   16   18 1
    31   18   23 ar
    32   18   19 ar
    33   19   20 ar
    34   19   44 1
    35   20   21 ar
    36   20   45 1
    37   21   22 ar
    38   21   24 1
    39   22   23 ar
    40   22   46 1
    41   23   47 1
    42   24   25 1
    43   24   26 1
    44   24   48 1
    45   25   49 1
    46   25   50 1
    47   25   51 1
    48   26   52 1
    49   26   53 1
    50   26   54 1
    51   27   28 1
    52   27   55 1
    53   28   33 ar
    54   28   29 ar
    55   29   30 ar
    56   29   56 1
    57   30   31 ar
    58   30   57 1
    59   31   32 ar
    60   31   58 1
    61   32   33 ar
    62   32   59 1
    63   33   60 1
    64   34   61 1
    65   34   62 1
    66   34   63 1
@<TRIPOS>MOLECULE
ZINC13642862
   68    73     0     0     0
SMALL
USER_CHARGES
3-[(3aS,4S,9bS)-8-isopentyloxy-3a,4,5,9b-tetrahydro-3H-cyclopenta[c]quinolin-4-yl]-9-ethyl-carbazole
@<TRIPOS>ATOM
      1 C1         -2.1839   -6.1385   -4.0927 C.3       1 <0>        -0.1725
      2 C2         -1.0387   -6.7600   -3.2908 C.3       1 <0>         0.1096
      3 N1         -0.9067   -6.0642   -2.0084 N.pl3     1 <0>        -0.5046
      4 C3         -1.5629   -6.4208   -0.8439 C.ar      1 <0>         0.1433
      5 C4         -2.4611   -7.4427   -0.5506 C.ar      1 <0>        -0.1436
      6 C5         -2.9708   -7.5686    0.7235 C.ar      1 <0>        -0.0825
      7 C6         -2.5975   -6.6829    1.7228 C.ar      1 <0>        -0.1511
      8 C7         -1.7097   -5.6643    1.4517 C.ar      1 <0>        -0.0604
      9 C8         -1.1864   -5.5257    0.1682 C.ar      1 <0>        -0.1050
     10 C9         -0.2411   -4.5745   -0.4449 C.ar      1 <0>        -0.1017
     11 C10        -0.1075   -4.9566   -1.7883 C.ar      1 <0>         0.1485
     12 C11         0.7335   -4.2279   -2.6236 C.ar      1 <0>        -0.1412
     13 C12         1.4227   -3.1407   -2.1306 C.ar      1 <0>        -0.0681
     14 C13         1.2936   -2.7678   -0.8018 C.ar      1 <0>        -0.1261
     15 C14         0.4645   -3.4767    0.0410 C.ar      1 <0>        -0.0438
     16 C15         2.0577   -1.5791   -0.2781 C.3       1 <0>         0.2175
     17 H1          2.1564   -1.6433    0.8055 H         1 <0>         0.0773
     18 C16         1.3538   -0.2910   -0.6653 C.3       1 <0>        -0.0964
     19 H2          1.2973   -0.1784   -1.7480 H         1 <0>         0.0936
     20 C17         0.0021   -0.0041    0.0020 C.3       1 <0>        -0.0866
     21 C18        -0.0187    1.5257    0.0104 C.2       1 <0>        -0.1669
     22 C19         1.2226    1.9964    0.0011 C.2       1 <0>        -0.1487
     23 C20         2.1656    0.8487    0.0197 C.3       1 <0>        -0.0275
     24 H3          2.3140    0.5674    1.0622 H         1 <0>         0.0844
     25 C21         3.4919    0.9164   -0.6314 C.ar      1 <0>        -0.0984
     26 C22         4.1689    2.1038   -0.8073 C.ar      1 <0>        -0.0990
     27 C23         5.4260    2.1119   -1.3926 C.ar      1 <0>         0.0787
     28 C24         6.0042    0.9196   -1.8030 C.ar      1 <0>        -0.1629
     29 C25         5.3278   -0.2709   -1.6354 C.ar      1 <0>        -0.1553
     30 C26         4.0653   -0.2871   -1.0557 C.ar      1 <0>         0.1875
     31 N2          3.3922   -1.5097   -0.9123 N.pl3     1 <0>        -0.7472
     32 O1          6.0902    3.2862   -1.5643 O.3       1 <0>        -0.3190
     33 C27         7.3806    3.2184   -2.1747 C.3       1 <0>         0.0605
     34 C28         7.9682    4.6269   -2.2830 C.3       1 <0>        -0.1147
     35 C29         9.3497    4.5542   -2.9365 C.3       1 <0>        -0.0937
     36 C30         9.2066    4.0633   -4.3785 C.3       1 <0>        -0.1536
     37 C31         9.9897    5.9440   -2.9320 C.3       1 <0>        -0.1477
     38 H4         -2.2821   -6.6563   -5.0469 H         1 <0>         0.0749
     39 H5         -3.1134   -6.2322   -3.5312 H         1 <0>         0.0622
     40 H6         -1.9720   -5.0844   -4.2715 H         1 <0>         0.0621
     41 H7         -0.1092   -6.6664   -3.8524 H         1 <0>         0.0872
     42 H8         -1.2506   -7.8142   -3.1120 H         1 <0>         0.0874
     43 H9         -2.7582   -8.1379   -1.3219 H         1 <0>         0.1216
     44 H10        -3.6671   -8.3637    0.9454 H         1 <0>         0.1286
     45 H11        -3.0038   -6.7918    2.7175 H         1 <0>         0.1269
     46 H12        -1.4209   -4.9755    2.2318 H         1 <0>         0.1250
     47 H13         0.8442   -4.5127   -3.6594 H         1 <0>         0.1225
     48 H14         2.0712   -2.5765   -2.7844 H         1 <0>         0.1289
     49 H15         0.3622   -3.1814    1.0748 H         1 <0>         0.1259
     50 H16        -0.0244   -0.4006    1.0170 H         1 <0>         0.0803
     51 H17        -0.8197   -0.4026   -0.5930 H         1 <0>         0.0736
     52 H18        -0.9116    2.1332    0.0181 H         1 <0>         0.1290
     53 H19         1.5005    3.0398   -0.0175 H         1 <0>         0.1306
     54 H20         3.7184    3.0321   -0.4881 H         1 <0>         0.1282
     55 H21         6.9855    0.9234   -2.2540 H         1 <0>         0.1244
     56 H22         5.7824   -1.1963   -1.9571 H         1 <0>         0.1210
     57 H23         3.8093   -2.3238   -1.2349 H         1 <0>         0.3989
     58 H24         8.0377    2.5963   -1.5669 H         1 <0>         0.0579
     59 H25         7.2891    2.7852   -3.1707 H         1 <0>         0.0613
     60 H26         7.3110    5.2489   -2.8907 H         1 <0>         0.0737
     61 H27         8.0597    5.0600   -1.2870 H         1 <0>         0.0735
     62 H28         9.9799    3.8622   -2.3779 H         1 <0>         0.0722
     63 H29         8.5764    4.7554   -4.9371 H         1 <0>         0.0573
     64 H30        10.1909    4.0116   -4.8440 H         1 <0>         0.0570
     65 H31         8.7507    3.0733   -4.3817 H         1 <0>         0.0551
     66 H32        10.0916    6.2937   -1.9046 H         1 <0>         0.0563
     67 H33        10.9739    5.8922   -3.3975 H         1 <0>         0.0574
     68 H34         9.3595    6.6360   -3.4905 H         1 <0>         0.0565
@<TRIPOS>BOND
     1    1    2 1
     2    1   38 1
     3    1   39 1
     4    1   40 1
     5    2    3 1
     6    2   41 1
     7    2   42 1
     8    3   11 1
     9    3    4 1
    10    4    9 ar
    11    4    5 ar
    12    5    6 ar
    13    5   43 1
    14    6    7 ar
    15    6   44 1
    16    7    8 ar
    17    7   45 1
    18    8    9 ar
    19    8   46 1
    20    9   10 1
    21   10   15 ar
    22   10   11 ar
    23   11   12 ar
    24   12   13 ar
    25   12   47 1
    26   13   14 ar
    27   13   48 1
    28   14   15 ar
    29   14   16 1
    30   15   49 1
    31   16   17 1
    32   16   31 1
    33   16   18 1
    34   18   19 1
    35   18   23 1
    36   18   20 1
    37   20   21 1
    38   20   50 1
    39   20   51 1
    40   21   22 2
    41   21   52 1
    42   22   23 1
    43   22   53 1
    44   23   24 1
    45   23   25 1
    46   25   30 ar
    47   25   26 ar
    48   26   27 ar
    49   26   54 1
    50   27   28 ar
    51   27   32 1
    52   28   29 ar
    53   28   55 1
    54   29   30 ar
    55   29   56 1
    56   30   31 1
    57   31   57 1
    58   32   33 1
    59   33   34 1
    60   33   58 1
    61   33   59 1
    62   34   35 1
    63   34   60 1
    64   34   61 1
    65   35   36 1
    66   35   37 1
    67   35   62 1
    68   36   63 1
    69   36   64 1
    70   36   65 1
    71   37   66 1
    72   37   67 1
    73   37   68 1
@<TRIPOS>MOLECULE
ZINC08740856
   50    54     0     0     0
SMALL
USER_CHARGES

@<TRIPOS>ATOM
      1 C1          0.0827    1.4613    0.1448 C.ar      1 <0>        -0.1141
      2 C2          1.2918    2.1326    0.1079 C.ar      1 <0>        -0.1209
      3 C3          2.4747    1.4258    0.0372 C.ar      1 <0>        -0.0903
      4 C4          2.4498    0.0318    0.0029 C.ar      1 <0>        -0.0109
      5 C5          1.2278   -0.6393    0.0403 C.ar      1 <0>        -0.1011
      6 C6          0.0515    0.0786    0.1111 C.ar      1 <0>        -0.1190
      7 C7          3.7162   -0.7331   -0.0736 C.2       1 <0>         0.0742
      8 C8          3.9676   -1.9580    0.5219 C.2       1 <0>         0.0401
      9 N1          5.2600   -2.2931    0.1905 N.pl3     1 <0>        -0.5528
     10 H1          5.7328   -3.0971    0.4570 H         1 <0>         0.4233
     11 C9          5.7527   -1.2818   -0.5841 C.2       1 <0>         0.2575
     12 N2          4.8242   -0.3656   -0.7375 N.2       1 <0>        -0.4522
     13 C10         7.1121   -1.2294   -1.1622 C.ar      1 <0>        -0.0119
     14 C11         8.0102   -2.2741   -0.9367 C.ar      1 <0>        -0.0986
     15 C12         9.2773   -2.2195   -1.4787 C.ar      1 <0>        -0.1050
     16 C13         9.6592   -1.1313   -2.2454 C.ar      1 <0>        -0.0262
     17 C14         8.7727   -0.0920   -2.4726 C.ar      1 <0>        -0.1057
     18 C15         7.5010   -0.1379   -1.9406 C.ar      1 <0>        -0.0631
     19 Cl1        11.2559   -1.0696   -2.9238 Cl        1 <0>        -0.0615
     20 C16         3.0341   -2.7472    1.3487 C.ar      1 <0>        -0.0246
     21 C17         2.2718   -2.1198    2.3375 C.ar      1 <0>        -0.0675
     22 C18         1.4009   -2.8605    3.1069 C.ar      1 <0>        -0.1157
     23 C19         1.2806   -4.2290    2.9010 C.ar      1 <0>         0.0980
     24 C20         2.0368   -4.8569    1.9195 C.ar      1 <0>        -0.1352
     25 C21         2.9056   -4.1229    1.1412 C.ar      1 <0>        -0.0921
     26 O1          0.4211   -4.9555    3.6621 O.3       1 <0>        -0.2563
     27 C22         0.9457   -5.8606    4.5292 C.ar      1 <0>         0.1188
     28 C23         2.3191   -5.9296    4.7154 C.ar      1 <0>        -0.1949
     29 C24         2.8498   -6.8504    5.5979 C.ar      1 <0>        -0.0826
     30 C25         2.0138   -7.7031    6.2950 C.ar      1 <0>        -0.1507
     31 C26         0.6450   -7.6367    6.1110 C.ar      1 <0>        -0.0820
     32 C27         0.1087   -6.7136    5.2344 C.ar      1 <0>        -0.1437
     33 H2         -0.8403    2.0188    0.2047 H         1 <0>         0.1228
     34 H3          1.3098    3.2122    0.1342 H         1 <0>         0.1247
     35 H4          3.4180    1.9510    0.0080 H         1 <0>         0.1267
     36 H5          1.2021   -1.7187    0.0137 H         1 <0>         0.1218
     37 H6         -0.8954   -0.4400    0.1405 H         1 <0>         0.1242
     38 H7          7.7135   -3.1231   -0.3387 H         1 <0>         0.1276
     39 H8          9.9731   -3.0270   -1.3047 H         1 <0>         0.1402
     40 H9          9.0763    0.7543   -3.0710 H         1 <0>         0.1424
     41 H10         6.8088    0.6710   -2.1225 H         1 <0>         0.1486
     42 H11         2.3652   -1.0560    2.4988 H         1 <0>         0.1381
     43 H12         0.8113   -2.3764    3.8714 H         1 <0>         0.1399
     44 H13         1.9406   -5.9212    1.7632 H         1 <0>         0.1349
     45 H14         3.4898   -4.6112    0.3753 H         1 <0>         0.1289
     46 H15         2.9725   -5.2643    4.1706 H         1 <0>         0.1278
     47 H16         3.9186   -6.9045    5.7432 H         1 <0>         0.1260
     48 H17         2.4308   -8.4225    6.9842 H         1 <0>         0.1262
     49 H18        -0.0057   -8.3043    6.6562 H         1 <0>         0.1326
     50 H19        -0.9608   -6.6589    5.0946 H         1 <0>         0.1335
@<TRIPOS>BOND
     1    1    6 ar
     2    1    2 ar
     3    1   33 1
     4    2    3 ar
     5    2   34 1
     6    3    4 ar
     7    3   35 1
     8    4    5 ar
     9    4    7 1
    10    5    6 ar
    11    5   36 1
    12    6   37 1
    13    7   12 1
    14    7    8 2
    15    8    9 1
    16    8   20 1
    17    9   10 1
    18    9   11 1
    19   11   12 2
    20   11   13 1
    21   13   18 ar
    22   13   14 ar
    23   14   15 ar
    24   14   38 1
    25   15   16 ar
    26   15   39 1
    27   16   17 ar
    28   16   19 1
    29   17   18 ar
    30   17   40 1
    31   18   41 1
    32   20   25 ar
    33   20   21 ar
    34   21   22 ar
    35   21   42 1
    36   22   23 ar
    37   22   43 1
    38   23   24 ar
    39   23   26 1
    40   24   25 ar
    41   24   44 1
    42   25   45 1
    43   26   27 1
    44   27   32 ar
    45   27   28 ar
    46   28   29 ar
    47   28   46 1
    48   29   30 ar
    49   29   47 1
    50   30   31 ar
    51   30   48 1
    52   31   32 ar
    53   31   49 1
    54   32   50 1
@<TRIPOS>MOLECULE
ZINC39550609
   51    55     0     0     0
SMALL
USER_CHARGES

@<TRIPOS>ATOM
      1 C1         -0.0167    1.3793    0.0096 C.ar      1 <0>        -0.1143
      2 C2          1.1685    2.0929    0.0021 C.ar      1 <0>        -0.1210
      3 C3          2.3774    1.4279   -0.0130 C.ar      1 <0>        -0.0904
      4 C4          2.4029    0.0333   -0.0207 C.ar      1 <0>        -0.0104
      5 C5          1.2046   -0.6805   -0.0131 C.ar      1 <0>        -0.1008
      6 C6          0.0021   -0.0041    0.0020 C.ar      1 <0>        -0.1191
      7 C7          3.6973   -0.6867   -0.0375 C.2       1 <0>         0.0744
      8 C8          3.9702   -1.8910    0.5907 C.2       1 <0>         0.0387
      9 N1          5.2849   -2.1858    0.3110 N.pl3     1 <0>        -0.5538
     10 H1          5.7758   -2.9674    0.6091 H         1 <0>         0.4231
     11 C9          5.7689   -1.1712   -0.4660 C.2       1 <0>         0.2608
     12 N2          4.8149   -0.2918   -0.6692 N.2       1 <0>        -0.4537
     13 C10         7.1450   -1.0809   -0.9976 C.ar      1 <0>        -0.0281
     14 C11         8.0706   -2.0886   -0.7207 C.ar      1 <0>        -0.0812
     15 C12         9.3532   -1.9992   -1.2192 C.ar      1 <0>        -0.1486
     16 C13         9.7240   -0.9114   -1.9939 C.ar      1 <0>         0.1110
     17 C14         8.8092    0.0921   -2.2716 C.ar      1 <0>        -0.1492
     18 C15         7.5222    0.0098   -1.7833 C.ar      1 <0>        -0.0459
     19 F1         10.9819   -0.8288   -2.4798 F         1 <0>        -0.1343
     20 C16         3.0365   -2.6975    1.3990 C.ar      1 <0>        -0.0151
     21 C17         2.2174   -2.0787    2.3483 C.ar      1 <0>        -0.0704
     22 C18         1.3469   -2.8339    3.1014 C.ar      1 <0>        -0.0771
     23 C19         1.2816   -4.2133    2.9183 C.ar      1 <0>        -0.1088
     24 C20         2.0968   -4.8325    1.9736 C.ar      1 <0>        -0.1163
     25 C21         2.9647   -4.0815    1.2133 C.ar      1 <0>        -0.0893
     26 S1          0.1663   -5.1767    3.8840 S.3       1 <0>        -0.0071
     27 S2          0.4699   -7.0945    3.2263 S.3       1 <0>        -0.0138
     28 C22         1.8435   -7.6580    4.1751 C.ar      1 <0>        -0.1188
     29 C23         2.4340   -6.8186    5.1143 C.ar      1 <0>        -0.1204
     30 C24         3.5096   -7.2642    5.8558 C.ar      1 <0>        -0.1011
     31 C25         4.0009   -8.5433    5.6656 C.ar      1 <0>        -0.1114
     32 C26         3.4171   -9.3811    4.7324 C.ar      1 <0>        -0.1052
     33 C27         2.3371   -8.9456    3.9911 C.ar      1 <0>        -0.0829
     34 H2         -0.9604    1.9042    0.0260 H         1 <0>         0.1226
     35 H3          1.1475    3.1727    0.0078 H         1 <0>         0.1246
     36 H4          3.3020    1.9861   -0.0192 H         1 <0>         0.1266
     37 H5          1.2180   -1.7604   -0.0194 H         1 <0>         0.1216
     38 H6         -0.9264   -0.5556    0.0083 H         1 <0>         0.1239
     39 H7          7.7828   -2.9365   -0.1168 H         1 <0>         0.1282
     40 H8         10.0702   -2.7780   -1.0052 H         1 <0>         0.1423
     41 H9          9.1037    0.9379   -2.8752 H         1 <0>         0.1447
     42 H10         6.8088    0.7899   -2.0043 H         1 <0>         0.1494
     43 H11         2.2679   -1.0094    2.4909 H         1 <0>         0.1372
     44 H12         0.7143   -2.3565    3.8351 H         1 <0>         0.1368
     45 H13         2.0446   -5.9022    1.8342 H         1 <0>         0.1395
     46 H14         3.5927   -4.5614    0.4774 H         1 <0>         0.1272
     47 H15         2.0515   -5.8195    5.2629 H         1 <0>         0.1354
     48 H16         3.9686   -6.6132    6.5851 H         1 <0>         0.1292
     49 H17         4.8429   -8.8887    6.2472 H         1 <0>         0.1287
     50 H18         3.8041  -10.3788    4.5866 H         1 <0>         0.1321
     51 H19         1.8788   -9.6020    3.2661 H         1 <0>         0.1303
@<TRIPOS>BOND
     1    1    6 ar
     2    1    2 ar
     3    1   34 1
     4    2    3 ar
     5    2   35 1
     6    3    4 ar
     7    3   36 1
     8    4    5 ar
     9    4    7 1
    10    5    6 ar
    11    5   37 1
    12    6   38 1
    13    7   12 1
    14    7    8 2
    15    8    9 1
    16    8   20 1
    17    9   10 1
    18    9   11 1
    19   11   12 2
    20   11   13 1
    21   13   18 ar
    22   13   14 ar
    23   14   15 ar
    24   14   39 1
    25   15   16 ar
    26   15   40 1
    27   16   17 ar
    28   16   19 1
    29   17   18 ar
    30   17   41 1
    31   18   42 1
    32   20   25 ar
    33   20   21 ar
    34   21   22 ar
    35   21   43 1
    36   22   23 ar
    37   22   44 1
    38   23   24 ar
    39   23   26 1
    40   24   25 ar
    41   24   45 1
    42   25   46 1
    43   26   27 1
    44   27   28 1
    45   28   33 ar
    46   28   29 ar
    47   29   30 ar
    48   29   47 1
    49   30   31 ar
    50   30   48 1
    51   31   32 ar
    52   31   49 1
    53   32   33 ar
    54   32   50 1
    55   33   51 1
@<TRIPOS>MOLECULE
ZINC08657339
   53    57     0     0     0
SMALL
USER_CHARGES

@<TRIPOS>ATOM
      1 C1         -0.0462    1.4064   -0.6739 C.3       1 <0>         0.0244
      2 O1         -0.0344   -0.0224   -0.6999 O.3       1 <0>        -0.3148
      3 C2         -1.2288   -0.6518   -0.5503 C.ar      1 <0>         0.1406
      4 C3         -2.3891    0.0941   -0.3878 C.ar      1 <0>        -0.2062
      5 C4         -3.6030   -0.5406   -0.2362 C.ar      1 <0>        -0.0325
      6 C5         -3.6653   -1.9356   -0.2462 C.ar      1 <0>        -0.0581
      7 C6         -2.4964   -2.6819   -0.4099 C.ar      1 <0>        -0.0687
      8 C7         -1.2872   -2.0394   -0.5661 C.ar      1 <0>        -0.1478
      9 C8         -4.9645   -2.6203   -0.0835 C.2       1 <0>         0.2674
     10 N1         -5.1503   -3.9729   -0.0711 N.pl3     1 <0>        -0.5557
     11 H1         -4.4620   -4.6497   -0.1663 H         1 <0>         0.4222
     12 C9         -6.4979   -4.1961    0.1027 C.2       1 <0>         0.0359
     13 C10        -7.0925   -2.9480    0.1912 C.2       1 <0>         0.0694
     14 N2         -6.1244   -2.0245    0.0780 N.2       1 <0>        -0.4602
     15 C11        -8.5370   -2.6803    0.3819 C.ar      1 <0>        -0.0055
     16 C12        -9.2755   -3.4379    1.2907 C.ar      1 <0>        -0.0973
     17 C13       -10.6205   -3.1835    1.4643 C.ar      1 <0>        -0.1194
     18 C14       -11.2367   -2.1793    0.7391 C.ar      1 <0>        -0.1161
     19 C15       -10.5095   -1.4247   -0.1641 C.ar      1 <0>        -0.1214
     20 C16        -9.1627   -1.6658   -0.3423 C.ar      1 <0>        -0.0924
     21 C17        -7.1740   -5.5043    0.1794 C.ar      1 <0>        -0.0204
     22 C18        -8.3277   -5.7411   -0.5743 C.ar      1 <0>        -0.0807
     23 C19        -8.9573   -6.9628   -0.5019 C.ar      1 <0>        -0.1057
     24 C20        -8.4452   -7.9646    0.3233 C.ar      1 <0>        -0.0346
     25 C21        -7.2943   -7.7297    1.0764 C.ar      1 <0>        -0.1079
     26 C22        -6.6588   -6.5113    1.0015 C.ar      1 <0>        -0.1051
     27 C23        -9.1250   -9.2799    0.4004 C.ar      1 <0>        -0.0501
     28 C24       -10.2721   -9.5201   -0.3546 C.ar      1 <0>        -0.1087
     29 C25       -10.9003  -10.7464   -0.2791 C.ar      1 <0>        -0.1173
     30 C26       -10.3939  -11.7365    0.5437 C.ar      1 <0>        -0.1165
     31 C27        -9.2562  -11.5038    1.2956 C.ar      1 <0>        -0.1178
     32 C28        -8.6162  -10.2833    1.2239 C.ar      1 <0>        -0.1096
     33 H2          0.9693    1.7805   -0.8038 H         1 <0>         0.1030
     34 H3         -0.6768    1.7792   -1.4811 H         1 <0>         0.0586
     35 H4         -0.4401    1.7491    0.2828 H         1 <0>         0.0586
     36 H5         -2.3400    1.1730   -0.3798 H         1 <0>         0.1361
     37 H6         -4.5047    0.0401   -0.1095 H         1 <0>         0.1415
     38 H7         -2.5404   -3.7609   -0.4182 H         1 <0>         0.1251
     39 H8         -0.3832   -2.6158   -0.6969 H         1 <0>         0.1374
     40 H9         -8.7956   -4.2223    1.8571 H         1 <0>         0.1200
     41 H10       -11.1935   -3.7697    2.1674 H         1 <0>         0.1230
     42 H11       -12.2896   -1.9839    0.8784 H         1 <0>         0.1218
     43 H12       -10.9962   -0.6425   -0.7279 H         1 <0>         0.1237
     44 H13        -8.5951   -1.0731   -1.0444 H         1 <0>         0.1246
     45 H14        -8.7247   -4.9657   -1.2126 H         1 <0>         0.1290
     46 H15        -9.8484   -7.1460   -1.0839 H         1 <0>         0.1308
     47 H16        -6.8993   -8.5061    1.7149 H         1 <0>         0.1294
     48 H17        -5.7653   -6.3314    1.5809 H         1 <0>         0.1230
     49 H18       -10.6685   -8.7477   -0.9970 H         1 <0>         0.1262
     50 H19       -11.7892  -10.9335   -0.8632 H         1 <0>         0.1253
     51 H20       -10.8889  -12.6948    0.5996 H         1 <0>         0.1237
     52 H21        -8.8656  -12.2804    1.9365 H         1 <0>         0.1250
     53 H22        -7.7256  -10.1042    1.8079 H         1 <0>         0.1251
@<TRIPOS>BOND
     1    1    2 1
     2    1   33 1
     3    1   34 1
     4    1   35 1
     5    2    3 1
     6    3    8 ar
     7    3    4 ar
     8    4    5 ar
     9    4   36 1
    10    5    6 ar
    11    5   37 1
    12    6    7 ar
    13    6    9 1
    14    7    8 ar
    15    7   38 1
    16    8   39 1
    17    9   14 2
    18    9   10 1
    19   10   11 1
    20   10   12 1
    21   12   13 2
    22   12   21 1
    23   13   14 1
    24   13   15 1
    25   15   20 ar
    26   15   16 ar
    27   16   17 ar
    28   16   40 1
    29   17   18 ar
    30   17   41 1
    31   18   19 ar
    32   18   42 1
    33   19   20 ar
    34   19   43 1
    35   20   44 1
    36   21   26 ar
    37   21   22 ar
    38   22   23 ar
    39   22   45 1
    40   23   24 ar
    41   23   46 1
    42   24   25 ar
    43   24   27 1
    44   25   26 ar
    45   25   47 1
    46   26   48 1
    47   27   32 ar
    48   27   28 ar
    49   28   29 ar
    50   28   49 1
    51   29   30 ar
    52   29   50 1
    53   30   31 ar
    54   30   51 1
    55   31   32 ar
    56   31   52 1
    57   32   53 1
@<TRIPOS>MOLECULE
ZINC05045468
   47    50     0     0     0
SMALL
USER_CHARGES
tetramethylBLAHdiol
@<TRIPOS>ATOM
      1 C1         -1.8165    3.6099    0.0144 C.3       1 <0>        -0.1496
      2 C2         -0.7202    4.6770    0.0350 C.3       1 <0>        -0.0239
      3 C3          0.3746    4.3008    1.0584 C.3       1 <0>        -0.1035
      4 C4          1.3935    3.5558    0.1851 C.3       1 <0>         0.0246
      5 C5          2.8235    3.8089    0.6828 C.3       1 <0>        -0.1029
      6 C6          3.5203    2.4655    0.3704 C.3       1 <0>        -0.0238
      7 C7          2.4111    1.4340    0.3667 C.ar      1 <0>        -0.0894
      8 C8          1.1836    2.0666    0.2548 C.ar      1 <0>        -0.0584
      9 C9          0.0231    1.3129    0.2260 C.ar      1 <0>        -0.1502
     10 C10         0.0849   -0.0690    0.3119 C.ar      1 <0>         0.1033
     11 C11         1.3153   -0.6990    0.4267 C.ar      1 <0>        -0.1427
     12 C12         2.4721    0.0536    0.4535 C.ar      1 <0>        -0.0887
     13 O1         -1.0573   -0.8050    0.2842 O.3       1 <0>        -0.4982
     14 C13         4.5479    2.1359    1.4550 C.3       1 <0>        -0.1392
     15 C14         4.1952    2.5241   -1.0014 C.3       1 <0>        -0.1500
     16 C15         1.2064    4.0780   -1.2147 C.ar      1 <0>        -0.0582
     17 C16        -0.0131    4.7294   -1.3035 C.ar      1 <0>        -0.0889
     18 C17        -0.4053    5.3016   -2.5017 C.ar      1 <0>        -0.0888
     19 C18         0.4112    5.2245   -3.6120 C.ar      1 <0>        -0.1430
     20 C19         1.6313    4.5702   -3.5273 C.ar      1 <0>         0.1029
     21 C20         2.0253    3.9986   -2.3276 C.ar      1 <0>        -0.1519
     22 O2          2.4383    4.4895   -4.6178 O.3       1 <0>        -0.4980
     23 C21        -1.3160    6.0448    0.3741 C.3       1 <0>        -0.1390
     24 H1         -1.8933    3.1490    0.9991 H         1 <0>         0.0664
     25 H2         -2.7687    4.0723   -0.2456 H         1 <0>         0.0622
     26 H3         -1.5685    2.8484   -0.7249 H         1 <0>         0.0670
     27 H4         -0.0260    3.6456    1.8319 H         1 <0>         0.0829
     28 H5          0.8192    5.1941    1.4970 H         1 <0>         0.0814
     29 H6          2.8317    4.0105    1.7539 H         1 <0>         0.0812
     30 H7          3.2905    4.6255    0.1323 H         1 <0>         0.0820
     31 H8         -0.9344    1.8035    0.1317 H         1 <0>         0.1485
     32 H9          1.3680   -1.7756    0.4945 H         1 <0>         0.1295
     33 H10         3.4301   -0.4371    0.5424 H         1 <0>         0.1239
     34 H11        -1.3328   -1.0702   -0.6039 H         1 <0>         0.3900
     35 H12         4.9957    1.1640    1.2479 H         1 <0>         0.0580
     36 H13         5.3254    2.8999    1.4630 H         1 <0>         0.0607
     37 H14         4.0547    2.1092    2.4267 H         1 <0>         0.0583
     38 H15         3.4889    2.2047   -1.7677 H         1 <0>         0.0693
     39 H16         4.5152    3.5459   -1.2055 H         1 <0>         0.0648
     40 H17         5.0622    1.8636   -1.0083 H         1 <0>         0.0622
     41 H18        -1.3551    5.8113   -2.5678 H         1 <0>         0.1238
     42 H19         0.1009    5.6727   -4.5443 H         1 <0>         0.1293
     43 H20         2.9752    3.4891   -2.2610 H         1 <0>         0.1498
     44 H21         3.0619    5.2238   -4.7008 H         1 <0>         0.3897
     45 H22        -0.5302    6.7998    0.3485 H         1 <0>         0.0579
     46 H23        -2.0858    6.2968   -0.3553 H         1 <0>         0.0579
     47 H24        -1.7564    6.0123    1.3706 H         1 <0>         0.0610
@<TRIPOS>BOND
     1    1    2 1
     2    1   24 1
     3    1   25 1
     4    1   26 1
     5    2   17 1
     6    2    3 1
     7    2   23 1
     8    3    4 1
     9    3   27 1
    10    3   28 1
    11    4    8 1
    12    4    5 1
    13    4   16 1
    14    5    6 1
    15    5   29 1
    16    5   30 1
    17    6    7 1
    18    6   14 1
    19    6   15 1
    20    7   12 ar
    21    7    8 ar
    22    8    9 ar
    23    9   10 ar
    24    9   31 1
    25   10   11 ar
    26   10   13 1
    27   11   12 ar
    28   11   32 1
    29   12   33 1
    30   13   34 1
    31   14   35 1
    32   14   36 1
    33   14   37 1
    34   15   38 1
    35   15   39 1
    36   15   40 1
    37   16   21 ar
    38   16   17 ar
    39   17   18 ar
    40   18   19 ar
    41   18   41 1
    42   19   20 ar
    43   19   42 1
    44   20   21 ar
    45   20   22 1
    46   21   43 1
    47   22   44 1
    48   23   45 1
    49   23   46 1
    50   23   47 1
@<TRIPOS>MOLECULE
ZINC36284715
   33    35     0     0     0
SMALL
USER_CHARGES

@<TRIPOS>ATOM
      1 C1          0.4256    0.9592    0.2763 C.3       1 <0>        -0.1797
      2 C2          0.1312   -0.5031   -0.0641 C.3       1 <0>         0.0938
      3 N1         -1.3147   -0.7339   -0.0171 N.pl3     1 <0>        -0.4814
      4 C3         -2.0624   -1.0244    1.1074 C.ar      1 <0>         0.1093
      5 C4         -1.7540   -1.1867    2.4523 C.ar      1 <0>        -0.1831
      6 C5         -2.7513   -1.4814    3.3575 C.ar      1 <0>        -0.0357
      7 C6         -4.0661   -1.6190    2.9378 C.ar      1 <0>        -0.2323
      8 C7         -4.3958   -1.4623    1.6042 C.ar      1 <0>         0.2834
      9 C8         -3.3902   -1.1608    0.6707 C.ar      1 <0>        -0.0193
     10 N2         -3.3962   -0.9529   -0.6684 N.2       1 <0>        -0.4583
     11 C9         -2.1790   -0.6961   -1.0793 C.2       1 <0>         0.2928
     12 C10        -1.7955   -0.4115   -2.4789 C.ar      1 <0>         0.0001
     13 C11        -2.6177   -0.8248   -3.5283 C.ar      1 <0>        -0.0590
     14 C12        -2.2558   -0.5565   -4.8319 C.ar      1 <0>        -0.0943
     15 C13        -1.0786    0.1212   -5.1012 C.ar      1 <0>        -0.0224
     16 C14        -0.2579    0.5342   -4.0639 C.ar      1 <0>        -0.0288
     17 C15        -0.6133    0.2761   -2.7550 C.ar      1 <0>        -0.1053
     18 Cl1         1.2164    1.3828   -4.4105 Cl        1 <0>        -0.0388
     19 Cl2        -0.6291    0.4542   -6.7446 Cl        1 <0>        -0.0394
     20 N3         -5.7210   -1.6028    1.1876 N.pl3     1 <0>        -0.8624
     21 H1          1.5015    1.1309    0.2414 H         1 <0>         0.0835
     22 H2         -0.0694    1.6073   -0.4468 H         1 <0>         0.0658
     23 H3          0.0546    1.1811    1.2769 H         1 <0>         0.0709
     24 H4          0.5023   -0.7251   -1.0646 H         1 <0>         0.0999
     25 H5          0.6263   -1.1513    0.6591 H         1 <0>         0.0966
     26 H6         -0.7330   -1.0822    2.7886 H         1 <0>         0.1193
     27 H7         -2.5066   -1.6066    4.4020 H         1 <0>         0.1305
     28 H8         -4.8375   -1.8504    3.6574 H         1 <0>         0.1282
     29 H9         -3.5358   -1.3541   -3.3199 H         1 <0>         0.1525
     30 H10        -2.8916   -0.8760   -5.6443 H         1 <0>         0.1523
     31 H11         0.0247    0.6018   -1.9467 H         1 <0>         0.1549
     32 H12        -6.4133   -1.8110    1.8344 H         1 <0>         0.4010
     33 H13        -5.9494   -1.4923    0.2514 H         1 <0>         0.4055
@<TRIPOS>BOND
     1    1    2 1
     2    1   21 1
     3    1   22 1
     4    1   23 1
     5    2    3 1
     6    2   24 1
     7    2   25 1
     8    3   11 1
     9    3    4 1
    10    4    9 ar
    11    4    5 ar
    12    5    6 ar
    13    5   26 1
    14    6    7 ar
    15    6   27 1
    16    7    8 ar
    17    7   28 1
    18    8    9 ar
    19    8   20 1
    20    9   10 1
    21   10   11 2
    22   11   12 1
    23   12   17 ar
    24   12   13 ar
    25   13   14 ar
    26   13   29 1
    27   14   15 ar
    28   14   30 1
    29   15   16 ar
    30   15   19 1
    31   16   17 ar
    32   16   18 1
    33   17   31 1
    34   20   32 1
    35   20   33 1
@<TRIPOS>MOLECULE
ZINC37205997
   32    35     0     0     0
SMALL
USER_CHARGES

@<TRIPOS>ATOM
      1 C1         -0.0164    1.3567    0.0095 C.ar      1 <0>        -0.1406
      2 C2          1.1688    2.0901    0.0021 C.ar      1 <0>        -0.0882
      3 C3          2.3788    1.4671   -0.0131 C.ar      1 <0>        -0.1313
      4 C4          2.4395    0.0626   -0.0212 C.ar      1 <0>         0.0249
      5 C5          3.6741   -0.6077   -0.0364 C.ar      1 <0>        -0.2173
      6 C6          3.7090   -1.9724   -0.0436 C.ar      1 <0>         0.2687
      7 C7          2.5132   -2.7236   -0.0359 C.ar      1 <0>        -0.0905
      8 C8          1.2852   -2.0862   -0.0213 C.ar      1 <0>        -0.0107
      9 C9          1.2333   -0.6840   -0.0133 C.ar      1 <0>        -0.1058
     10 C10         0.0021   -0.0041    0.0020 C.ar      1 <0>        -0.0788
     11 C11         2.5737   -4.1993   -0.0439 C.2       1 <0>         0.2209
     12 N1          3.6312   -4.9821   -0.0522 N.2       1 <0>        -0.5212
     13 C12         3.5373   -6.3259   -0.0590 C.ar      1 <0>         0.1008
     14 C13         4.5872   -7.2759   -0.0686 C.ar      1 <0>        -0.0611
     15 C14         4.3210   -8.6091   -0.0750 C.ar      1 <0>        -0.0967
     16 C15         3.0201   -9.0931   -0.0725 C.ar      1 <0>        -0.0866
     17 C16         1.9644   -8.1991   -0.0631 C.ar      1 <0>         0.0164
     18 C17         2.2229   -6.8492   -0.0566 C.ar      1 <0>        -0.1523
     19 S1          1.2291   -5.3769   -0.0369 S.3       1 <0>         0.0390
     20 Cl1         0.3275   -8.7771   -0.0597 Cl        1 <0>        -0.0493
     21 N2          4.9368   -2.6307   -0.0591 N.pl3     1 <0>        -0.8630
     22 H1         -0.9633    1.8758    0.0259 H         1 <0>         0.1241
     23 H2          1.1264    3.1693    0.0083 H         1 <0>         0.1240
     24 H3          3.2885    2.0492   -0.0194 H         1 <0>         0.1280
     25 H4          4.5951   -0.0437   -0.0428 H         1 <0>         0.1328
     26 H5          0.3728   -2.6640   -0.0162 H         1 <0>         0.1360
     27 H6         -0.9243   -0.5593    0.0075 H         1 <0>         0.1281
     28 H7          5.6127   -6.9371   -0.0712 H         1 <0>         0.1401
     29 H8          5.1430   -9.3096   -0.0827 H         1 <0>         0.1462
     30 H9          2.8339  -10.1570   -0.0781 H         1 <0>         0.1507
     31 H10         5.7611   -2.1195   -0.0648 H         1 <0>         0.3974
     32 H11         4.9672   -3.6002   -0.0643 H         1 <0>         0.4151
@<TRIPOS>BOND
     1    1   10 ar
     2    1    2 ar
     3    1   22 1
     4    2    3 ar
     5    2   23 1
     6    3    4 ar
     7    3   24 1
     8    4    9 ar
     9    4    5 ar
    10    5    6 ar
    11    5   25 1
    12    6    7 ar
    13    6   21 1
    14    7    8 ar
    15    7   11 1
    16    8    9 ar
    17    8   26 1
    18    9   10 ar
    19   10   27 1
    20   11   19 1
    21   11   12 2
    22   12   13 1
    23   13   18 ar
    24   13   14 ar
    25   14   15 ar
    26   14   28 1
    27   15   16 ar
    28   15   29 1
    29   16   17 ar
    30   16   30 1
    31   17   18 ar
    32   17   20 1
    33   18   19 1
    34   21   31 1
    35   21   32 1
@<TRIPOS>MOLECULE
ZINC42411582
   31    32     0     0     0
SMALL
USER_CHARGES

@<TRIPOS>ATOM
      1 C1         -0.0184    1.5028    0.0103 C.3       1 <0>        -0.1067
      2 C2          0.0021   -0.0041    0.0020 C.ar      1 <0>        -0.1558
      3 C3          0.0057   -0.6888   -1.1976 C.ar      1 <0>        -0.0425
      4 C4          0.0240   -2.0720   -1.2060 C.ar      1 <0>        -0.1452
      5 C5          0.0391   -2.7738   -0.0134 C.ar      1 <0>        -0.0453
      6 C6          0.0355   -2.0947    1.1889 C.ar      1 <0>        -0.1918
      7 C7          0.0230   -0.7055    1.2005 C.ar      1 <0>         0.2347
      8 N1          0.0256   -0.0156    2.4154 N.pl3     1 <0>        -0.7333
      9 C8          0.0477   -0.7569    3.6788 C.3       1 <0>         0.1743
     10 C9          0.0460    0.2142    4.8312 C.ar      1 <0>        -0.1324
     11 C10         1.2276    0.5208    5.4787 C.ar      1 <0>        -0.0696
     12 C11         1.2272    1.4115    6.5359 C.ar      1 <0>        -0.1234
     13 C12         0.0450    1.9984    6.9483 C.ar      1 <0>        -0.0677
     14 C13        -1.1395    1.6956    6.3040 C.ar      1 <0>        -0.1243
     15 C14        -1.1405    0.8050    5.2389 C.ar      1 <0>         0.1536
     16 O1         -2.3031    0.5092    4.6000 O.3       1 <0>        -0.4797
     17 Br1        -2.7561    2.4979    6.8686 Br        1 <0>        -0.0312
     18 Br2         0.0277   -3.0058   -2.8504 Br        1 <0>        -0.0613
     19 H1          1.0042    1.8801    0.0026 H         1 <0>         0.0684
     20 H2         -0.5455    1.8639   -0.8728 H         1 <0>         0.0704
     21 H3         -0.5286    1.8543    0.9071 H         1 <0>         0.0609
     22 H4         -0.0060   -0.1438   -2.1299 H         1 <0>         0.1306
     23 H5          0.0533   -3.8536   -0.0230 H         1 <0>         0.1302
     24 H6          0.0470   -2.6429    2.1194 H         1 <0>         0.1282
     25 H7          0.0128    0.9543    2.4224 H         1 <0>         0.4034
     26 H8         -0.8334   -1.3957    3.7407 H         1 <0>         0.0716
     27 H9          0.9464   -1.3721    3.7234 H         1 <0>         0.0732
     28 H10         2.1524    0.0639    5.1587 H         1 <0>         0.1368
     29 H11         2.1518    1.6491    7.0409 H         1 <0>         0.1387
     30 H12         0.0472    2.6937    7.7748 H         1 <0>         0.1394
     31 H13        -2.7787   -0.2436    4.9771 H         1 <0>         0.3957
@<TRIPOS>BOND
     1    1    2 1
     2    1   19 1
     3    1   20 1
     4    1   21 1
     5    2    7 ar
     6    2    3 ar
     7    3    4 ar
     8    3   22 1
     9    4    5 ar
    10    4   18 1
    11    5    6 ar
    12    5   23 1
    13    6    7 ar
    14    6   24 1
    15    7    8 1
    16    8    9 1
    17    8   25 1
    18    9   10 1
    19    9   26 1
    20    9   27 1
    21   10   15 ar
    22   10   11 ar
    23   11   12 ar
    24   11   28 1
    25   12   13 ar
    26   12   29 1
    27   13   14 ar
    28   13   30 1
    29   14   15 ar
    30   14   17 1
    31   15   16 1
    32   16   31 1
@<TRIPOS>MOLECULE
ZINC36899243
   39    41     0     0     0
SMALL
USER_CHARGES

@<TRIPOS>ATOM
      1 C1         -0.0187    1.5258    0.0104 C.3       1 <0>        -0.1577
      2 C2          0.0021   -0.0041    0.0020 C.3       1 <0>        -0.0835
      3 C3         -1.4333   -0.5336    0.0129 C.3       1 <0>        -0.1204
      4 C4         -2.1494   -0.0402    1.2717 C.3       1 <0>        -0.1185
      5 C5         -1.4095   -0.5471    2.5112 C.3       1 <0>        -0.1332
      6 C6          0.0259   -0.0175    2.5003 C.3       1 <0>         0.1430
      7 C7          0.7421   -0.5109    1.2415 C.3       1 <0>        -0.0972
      8 C8          2.1775    0.0187    1.2307 C.3       1 <0>        -0.1500
      9 N1          0.7345   -0.5028    3.6872 N.pl3     1 <0>        -0.5043
     10 C9          1.3019    0.2774    4.6819 C.ar      1 <0>         0.0550
     11 C10         1.3975    1.6443    4.8944 C.ar      1 <0>        -0.0949
     12 C11         2.0461    2.1216    6.0145 C.ar      1 <0>        -0.0923
     13 C12         2.6046    1.2422    6.9314 C.ar      1 <0>        -0.0904
     14 C13         2.5192   -0.1188    6.7357 C.ar      1 <0>        -0.0498
     15 C14         1.8648   -0.6174    5.6065 C.ar      1 <0>         0.0886
     16 N2          1.6221   -1.8731    5.1467 N.2       1 <0>        -0.5468
     17 C15         0.9536   -1.8082    4.0222 C.2       1 <0>         0.5560
     18 N3          0.5364   -2.8961    3.2847 N.pl3     1 <0>        -0.8305
     19 Br1         3.4899    1.9170    8.4601 Br        1 <0>        -0.0472
     20 H1          1.0039    1.9031    0.0027 H         1 <0>         0.0608
     21 H2         -0.5459    1.8868   -0.8726 H         1 <0>         0.0600
     22 H3         -0.5289    1.8773    0.9072 H         1 <0>         0.0580
     23 H4          0.5123   -0.3556   -0.8948 H         1 <0>         0.0802
     24 H5         -1.9605   -0.1726   -0.8702 H         1 <0>         0.0714
     25 H6         -1.4185   -1.6235    0.0069 H         1 <0>         0.0644
     26 H7         -2.1642    1.0497    1.2777 H         1 <0>         0.0718
     27 H8         -3.1720   -0.4175    1.2794 H         1 <0>         0.0726
     28 H9         -1.9196   -0.1955    3.4080 H         1 <0>         0.0740
     29 H10        -1.3947   -1.6369    2.5052 H         1 <0>         0.0683
     30 H11         0.0111    1.0724    2.5063 H         1 <0>         0.1062
     31 H12         0.7568   -1.6008    1.2356 H         1 <0>         0.0743
     32 H13         2.1627    1.1086    1.2367 H         1 <0>         0.0622
     33 H14         2.7046   -0.3424    2.1137 H         1 <0>         0.0547
     34 H15         2.6876   -0.3328    0.3339 H         1 <0>         0.0617
     35 H16         0.9655    2.3338    4.1842 H         1 <0>         0.1263
     36 H17         2.1198    3.1865    6.1788 H         1 <0>         0.1378
     37 H18         2.9566   -0.7978    7.4526 H         1 <0>         0.1377
     38 H19         0.0466   -2.7627    2.4581 H         1 <0>         0.4084
     39 H20         0.7327   -3.7948    3.5924 H         1 <0>         0.4234
@<TRIPOS>BOND
     1    1    2 1
     2    1   20 1
     3    1   21 1
     4    1   22 1
     5    2    7 1
     6    2    3 1
     7    2   23 1
     8    3    4 1
     9    3   24 1
    10    3   25 1
    11    4    5 1
    12    4   26 1
    13    4   27 1
    14    5    6 1
    15    5   28 1
    16    5   29 1
    17    6    7 1
    18    6    9 1
    19    6   30 1
    20    7    8 1
    21    7   31 1
    22    8   32 1
    23    8   33 1
    24    8   34 1
    25    9   17 1
    26    9   10 1
    27   10   15 ar
    28   10   11 ar
    29   11   12 ar
    30   11   35 1
    31   12   13 ar
    32   12   36 1
    33   13   14 ar
    34   13   19 1
    35   14   15 ar
    36   14   37 1
    37   15   16 1
    38   16   17 2
    39   17   18 1
    40   18   38 1
    41   18   39 1
@<TRIPOS>MOLECULE
ZINC00569859
   29    31     0     0     0
SMALL
USER_CHARGES
4,6-dichloro-3-(5-chlorobenzooxazol-2-yl)-2-methyl-aniline
@<TRIPOS>ATOM
      1 C1          4.4285    5.9818    0.2233 C.3       1 <0>        -0.1076
      2 C2          3.6574    7.2722    0.1165 C.ar      1 <0>        -0.0895
      3 C3          2.2690    7.2483   -0.0232 C.ar      1 <0>         0.0273
      4 C4          1.5602    8.4484   -0.1159 C.ar      1 <0>        -0.0490
      5 C5          2.2346    9.6533   -0.0748 C.ar      1 <0>        -0.0563
      6 C6          3.6108    9.6760    0.0575 C.ar      1 <0>        -0.0829
      7 C7          4.3251    8.4854    0.1505 C.ar      1 <0>         0.2359
      8 N1          5.7168    8.5138    0.2846 N.pl3     1 <0>        -0.8593
      9 Cl1         4.4502   11.1947    0.1083 Cl        1 <0>        -0.0462
     10 Cl2        -0.1677    8.4257   -0.2821 Cl        1 <0>        -0.0432
     11 C8          1.5505    5.9579   -0.0670 C.2       1 <0>         0.2994
     12 N2          1.8891    4.9352   -0.8107 N.2       1 <0>        -0.4478
     13 C9          1.0058    3.9268   -0.5946 C.ar      1 <0>         0.0329
     14 C10         0.8780    2.6315   -1.1024 C.ar      1 <0>        -0.0488
     15 C11        -0.1557    1.8284   -0.6727 C.ar      1 <0>        -0.0362
     16 C12        -1.0727    2.3008    0.2564 C.ar      1 <0>        -0.0815
     17 C13        -0.9548    3.5756    0.7702 C.ar      1 <0>        -0.0758
     18 C14         0.0789    4.3977    0.3494 C.ar      1 <0>         0.0173
     19 O1          0.4511    5.6617    0.6518 O.3       1 <0>        -0.1903
     20 Cl3        -0.3166    0.2185   -1.3022 Cl        1 <0>        -0.0489
     21 H1          4.7635    5.6756   -0.7677 H         1 <0>         0.0869
     22 H2          5.2935    6.1280    0.8702 H         1 <0>         0.0693
     23 H3          3.7862    5.2085    0.6447 H         1 <0>         0.0733
     24 H4          1.6853   10.5804   -0.1465 H         1 <0>         0.1548
     25 H5          6.1841    9.3634    0.3128 H         1 <0>         0.4068
     26 H6          6.2149    7.6839    0.3494 H         1 <0>         0.4072
     27 H7          1.5863    2.2614   -1.8290 H         1 <0>         0.1494
     28 H8         -1.8818    1.6641    0.5826 H         1 <0>         0.1539
     29 H9         -1.6696    3.9342    1.4960 H         1 <0>         0.1486
@<TRIPOS>BOND
     1    1    2 1
     2    1   21 1
     3    1   22 1
     4    1   23 1
     5    2    7 ar
     6    2    3 ar
     7    3    4 ar
     8    3   11 1
     9    4    5 ar
    10    4   10 1
    11    5    6 ar
    12    5   24 1
    13    6    7 ar
    14    6    9 1
    15    7    8 1
    16    8   25 1
    17    8   26 1
    18   11   19 1
    19   11   12 2
    20   12   13 1
    21   13   18 ar
    22   13   14 ar
    23   14   15 ar
    24   14   27 1
    25   15   16 ar
    26   15   20 1
    27   16   17 ar
    28   16   28 1
    29   17   18 ar
    30   17   29 1
    31   18   19 1
@<TRIPOS>MOLECULE
ZINC19776173
   39    42     0     0     0
SMALL
USER_CHARGES
(2-amino-5-phenyl-3-thienyl)-(2-naphthyl)methanone
@<TRIPOS>ATOM
      1 C1          7.9076   -3.0584   -0.3821 C.ar      1 <0>        -0.1239
      2 C2          8.9757   -2.1799   -0.3365 C.ar      1 <0>        -0.1109
      3 C3          8.7521   -0.8204   -0.2671 C.ar      1 <0>        -0.1178
      4 C4          7.4446   -0.3317   -0.2425 C.ar      1 <0>         0.0119
      5 C5          6.3716   -1.2239   -0.2825 C.ar      1 <0>        -0.1096
      6 C6          6.6093   -2.5806   -0.3585 C.ar      1 <0>        -0.1108
      7 C7          7.1975    1.1234   -0.1683 C.2       1 <0>        -0.1696
      8 C8          6.0062    1.7748   -0.1292 C.2       1 <0>        -0.0505
      9 C9          6.0506    3.2131   -0.0614 C.2       1 <0>        -0.3291
     10 C10         7.3172    3.8015   -0.0306 C.2       1 <0>         0.1788
     11 S1          8.3899    2.4442   -0.0999 S.3       1 <0>         0.1168
     12 N1          7.6362    5.1405    0.0379 N.pl3     1 <0>        -0.8316
     13 C11         4.8288    4.0180   -0.0205 C.2       1 <0>         0.4697
     14 O1          4.1786    4.0861    1.0068 O.2       1 <0>        -0.4470
     15 C12         4.3841    4.7483   -1.2266 C.ar      1 <0>        -0.1639
     16 C13         5.0729    4.5755   -2.4407 C.ar      1 <0>        -0.0701
     17 C14         4.6837    5.2344   -3.5614 C.ar      1 <0>        -0.1171
     18 C15         3.5781    6.1039   -3.5187 C.ar      1 <0>        -0.0281
     19 C16         3.1564    6.7963   -4.6660 C.ar      1 <0>        -0.1151
     20 C17         2.0861    7.6345   -4.5932 C.ar      1 <0>        -0.1019
     21 C18         1.3920    7.8105   -3.3976 C.ar      1 <0>        -0.1202
     22 C19         1.7708    7.1570   -2.2656 C.ar      1 <0>        -0.0953
     23 C20         2.8753    6.2867   -2.3007 C.ar      1 <0>        -0.0690
     24 C21         3.2922    5.5971   -1.1524 C.ar      1 <0>        -0.0359
     25 H1          8.0882   -4.1218   -0.4368 H         1 <0>         0.1235
     26 H2          9.9866   -2.5594   -0.3556 H         1 <0>         0.1253
     27 H3          9.5866   -0.1358   -0.2322 H         1 <0>         0.1209
     28 H4          5.3577   -0.8525   -0.2589 H         1 <0>         0.1240
     29 H5          5.7801   -3.2717   -0.3948 H         1 <0>         0.1258
     30 H6          5.0686    1.2392   -0.1520 H         1 <0>         0.1372
     31 H7          8.6903    5.4546    0.0546 H         1 <0>         0.4363
     32 H8          6.8367    5.8951    0.0759 H         1 <0>         0.4330
     33 H9          5.9222    3.9096   -2.4816 H         1 <0>         0.1299
     34 H10         5.2224    5.0912   -4.4864 H         1 <0>         0.1316
     35 H11         3.6819    6.6676   -5.6007 H         1 <0>         0.1301
     36 H12         1.7676    8.1682   -5.4765 H         1 <0>         0.1264
     37 H13         0.5439    8.4785   -3.3680 H         1 <0>         0.1268
     38 H14         1.2264    7.3061   -1.3448 H         1 <0>         0.1306
     39 H15         2.7658    5.7268   -0.2183 H         1 <0>         0.1390
@<TRIPOS>BOND
     1    1    6 ar
     2    1    2 ar
     3    1   25 1
     4    2    3 ar
     5    2   26 1
     6    3    4 ar
     7    3   27 1
     8    4    5 ar
     9    4    7 1
    10    5    6 ar
    11    5   28 1
    12    6   29 1
    13    7   11 1
    14    7    8 2
    15    8    9 1
    16    8   30 1
    17    9   10 2
    18    9   13 1
    19   10   11 1
    20   10   12 1
    21   12   31 1
    22   12   32 1
    23   13   14 2
    24   13   15 1
    25   15   24 ar
    26   15   16 ar
    27   16   17 ar
    28   16   33 1
    29   17   18 ar
    30   17   34 1
    31   18   23 ar
    32   18   19 ar
    33   19   20 ar
    34   19   35 1
    35   20   21 ar
    36   20   36 1
    37   21   22 ar
    38   21   37 1
    39   22   23 ar
    40   22   38 1
    41   23   24 ar
    42   24   39 1
@<TRIPOS>MOLECULE
ZINC36142506
   45    48     0     0     0
SMALL
NO_CHARGES

@<TRIPOS>ATOM
      1 C1          0.1087    1.4704   -0.7703 C.ar      1 <0>        -0.1199
      2 C2          0.9785    1.8989    0.2177 C.ar      1 <0>        -0.1174
      3 C3          2.1451    1.2063    0.4621 C.ar      1 <0>        -0.1100
      4 C4          2.4486    0.0666   -0.2916 C.ar      1 <0>        -0.0461
      5 C5          1.5634   -0.3601   -1.2883 C.ar      1 <0>        -0.1132
      6 C6          0.4014    0.3443   -1.5203 C.ar      1 <0>        -0.1189
      7 C7          3.6902   -0.6778   -0.0381 C.2       1 <0>        -0.1488
      8 C8          3.6646   -2.0304    0.0447 C.2       1 <0>        -0.0631
      9 C9          2.3338   -2.7077    0.0362 C.3       1 <0>        -0.0820
     10 C10         2.4392   -4.2153    0.2030 C.3       1 <0>        -0.1201
     11 C11         3.6742   -4.7593   -0.5111 C.3       1 <0>        -0.1059
     12 C12         4.9290   -4.2138    0.1749 C.3       1 <0>        -0.0443
     13 C13         4.8883   -2.7069    0.1273 C.2       1 <0>         0.0380
     14 N1          6.0099   -2.0215    0.1888 N.pl3     1 <0>        -0.5081
     15 C14         7.2039   -2.6259    0.2097 C.2       1 <0>         0.4649
     16 S1          8.5493   -1.7565    0.6451 S.3       1 <0>        -0.5445
     17 N2          7.3367   -3.9496   -0.1213 N.pl3     1 <0>        -0.6734
     18 C15         6.1724   -4.7084   -0.5682 C.3       1 <0>         0.1734
     19 H1          6.0411   -4.5578   -1.6397 H         1 <0>         0.0928
     20 C16         6.3802   -6.1738   -0.2843 C.ar      1 <0>        -0.1035
     21 C17         6.9682   -6.5714    0.9018 C.ar      1 <0>        -0.1060
     22 C18         7.1588   -7.9156    1.1622 C.ar      1 <0>        -0.1144
     23 C19         6.7610   -8.8621    0.2366 C.ar      1 <0>        -0.1092
     24 C20         6.1722   -8.4645   -0.9492 C.ar      1 <0>        -0.1158
     25 C21         5.9777   -7.1206   -1.2077 C.ar      1 <0>        -0.1000
     26 H2         -0.8056    2.0152   -0.9540 H         1 <0>         0.1219
     27 H3          0.7428    2.7785    0.7983 H         1 <0>         0.1234
     28 H4          2.8230    1.5423    1.2328 H         1 <0>         0.1232
     29 H5          1.7904   -1.2383   -1.8745 H         1 <0>         0.1274
     30 H6         -0.2827    0.0164   -2.2890 H         1 <0>         0.1233
     31 H7          4.6231   -0.1469    0.0822 H         1 <0>         0.1133
     32 H8          1.7293   -2.3054    0.8491 H         1 <0>         0.0808
     33 H9          1.8358   -2.4925   -0.9092 H         1 <0>         0.0877
     34 H10         2.5051   -4.4543    1.2644 H         1 <0>         0.0656
     35 H11         1.5484   -4.6848   -0.2143 H         1 <0>         0.0755
     36 H12         3.6748   -5.8481   -0.4600 H         1 <0>         0.0811
     37 H13         3.6617   -4.4420   -1.5539 H         1 <0>         0.0735
     38 H14         7.2790   -5.8319    1.6250 H         1 <0>         0.1226
     39 H15         7.6188   -8.2262    2.0887 H         1 <0>         0.1266
     40 H16         6.9106   -9.9122    0.4398 H         1 <0>         0.1260
     41 H17         5.8618   -9.2040   -1.6725 H         1 <0>         0.1275
     42 H18         5.5143   -6.8101   -2.1325 H         1 <0>         0.1262
     43 H19         5.9704   -1.0528    0.2194 H         1 <0>         0.4341
     44 H20         8.2018   -4.3830   -0.0529 H         1 <0>         0.4327
     45 H21         4.9597   -4.5580    1.2087 H         1 <0>         0.1027
@<TRIPOS>BOND
     1    1    6 ar
     2    1    2 ar
     3    1   26 1
     4    2    3 ar
     5    2   27 1
     6    3    4 ar
     7    3   28 1
     8    4    5 ar
     9    4    7 1
    10    5    6 ar
    11    5   29 1
    12    6   30 1
    13    7    8 2
    14    7   31 1
    15    8   13 1
    16    8    9 1
    17    9   10 1
    18    9   32 1
    19    9   33 1
    20   10   11 1
    21   10   34 1
    22   10   35 1
    23   11   12 1
    24   11   36 1
    25   11   37 1
    26   12   18 1
    27   12   13 1
    28   12   45 1
    29   13   14 2
    30   14   15 1
    31   14   43 1
    32   15   16 1
    33   15   17 2
    34   17   18 1
    35   17   44 1
    36   18   19 1
    37   18   20 1
    38   20   25 ar
    39   20   21 ar
    40   21   22 ar
    41   21   38 1
    42   22   23 ar
    43   22   39 1
    44   23   24 ar
    45   23   40 1
    46   24   25 ar
    47   24   41 1
    48   25   42 1
@<TRIPOS>MOLECULE
ZINC05734393
   45    49     0     0     0
SMALL
USER_CHARGES

@<TRIPOS>ATOM
      1 C1         -0.1116    1.4994    0.0183 C.3       1 <0>        -0.1469
      2 C2         -0.0398   -0.0289    0.0130 C.3       1 <0>        -0.0324
      3 C3          0.5966   -0.5153   -1.2960 C.3       1 <0>        -0.0990
      4 C4          0.8230   -2.0009   -1.2671 C.2       1 <0>         0.1348
      5 C5          0.9168   -2.6929   -2.4751 C.2       1 <0>        -0.2055
      6 C6          0.9699   -2.1472   -3.7783 C.2       1 <0>         0.1472
      7 N1          1.0560   -3.1149   -4.6540 N.2       1 <0>        -0.4834
      8 C7          1.0691   -4.3347   -4.0694 C.ar      1 <0>         0.0519
      9 C8          0.9886   -4.1520   -2.6705 C.ar      1 <0>        -0.1000
     10 C9          0.9886   -5.2504   -1.8189 C.ar      1 <0>        -0.1014
     11 C10         1.0705   -6.5222   -2.3452 C.ar      1 <0>        -0.1224
     12 C11         1.1532   -6.7098   -3.7183 C.ar      1 <0>        -0.1233
     13 C12         1.1467   -5.6361   -4.5786 C.ar      1 <0>        -0.0768
     14 C13         0.9430   -2.7109   -0.0711 C.2       1 <0>        -0.2329
     15 C14         0.8554   -2.0346    1.1012 C.2       1 <0>         0.1774
     16 C15         0.8412   -0.5099    1.1640 C.3       1 <0>         0.2008
     17 C16         0.2804   -0.2285    2.5161 C.ar      1 <0>        -0.1767
     18 C17        -0.1821    0.9314    3.0991 C.ar      1 <0>        -0.0409
     19 C18        -0.6327    0.8443    4.4117 C.ar      1 <0>        -0.1485
     20 C19        -0.6171   -0.3516    5.1005 C.ar      1 <0>        -0.0746
     21 C20        -0.1591   -1.5247    4.5216 C.ar      1 <0>        -0.1432
     22 C21         0.2901   -1.4531    3.2025 C.ar      1 <0>         0.1466
     23 N2          0.7599   -2.4651    2.3793 N.pl3     1 <0>        -0.6331
     24 O1          2.1652    0.0114    1.0322 O.3       1 <0>        -0.5198
     25 C22        -1.4461   -0.6144    0.1565 C.3       1 <0>        -0.1501
     26 H1          0.8978    1.9105    0.0342 H         1 <0>         0.0714
     27 H2         -0.6293    1.8420   -0.8776 H         1 <0>         0.0662
     28 H3         -0.6543    1.8346    0.9021 H         1 <0>         0.0643
     29 H4         -0.0640   -0.2702   -2.1277 H         1 <0>         0.0975
     30 H5          1.5521   -0.0105   -1.4385 H         1 <0>         0.1094
     31 H6          0.9429   -1.0936   -4.0143 H         1 <0>         0.1729
     32 H7          0.9251   -5.1084   -0.7501 H         1 <0>         0.1176
     33 H8          1.0706   -7.3773   -1.6854 H         1 <0>         0.1227
     34 H9          1.2172   -7.7117   -4.1165 H         1 <0>         0.1257
     35 H10         1.2127   -5.7968   -5.6446 H         1 <0>         0.1247
     36 H11         1.1024   -3.7790   -0.0792 H         1 <0>         0.1425
     37 H12        -0.1937    1.8672    2.5601 H         1 <0>         0.1425
     38 H13        -1.0028    1.7321    4.9031 H         1 <0>         0.1296
     39 H14        -0.9717   -0.3739    6.1204 H         1 <0>         0.1303
     40 H15        -0.1505   -2.4558    5.0688 H         1 <0>         0.1353
     41 H16         0.9886   -3.3588    2.6791 H         1 <0>         0.4216
     42 H17         2.7677   -0.2626    1.7372 H         1 <0>         0.3825
     43 H18        -2.0656   -0.2799   -0.6756 H         1 <0>         0.0722
     44 H19        -1.3886   -1.7029    0.1520 H         1 <0>         0.0600
     45 H20        -1.8858   -0.2777    1.0952 H         1 <0>         0.0635
@<TRIPOS>BOND
     1    1    2 1
     2    1   26 1
     3    1   27 1
     4    1   28 1
     5    2   16 1
     6    2    3 1
     7    2   25 1
     8    3    4 1
     9    3   29 1
    10    3   30 1
    11    4    5 2
    12    4   14 1
    13    5    9 1
    14    5    6 1
    15    6    7 2
    16    6   31 1
    17    7    8 1
    18    8   13 ar
    19    8    9 ar
    20    9   10 ar
    21   10   11 ar
    22   10   32 1
    23   11   12 ar
    24   11   33 1
    25   12   13 ar
    26   12   34 1
    27   13   35 1
    28   14   15 2
    29   14   36 1
    30   15   23 1
    31   15   16 1
    32   16   17 1
    33   16   24 1
    34   17   22 ar
    35   17   18 ar
    36   18   19 ar
    37   18   37 1
    38   19   20 ar
    39   19   38 1
    40   20   21 ar
    41   20   39 1
    42   21   22 ar
    43   21   40 1
    44   22   23 1
    45   23   41 1
    46   24   42 1
    47   25   43 1
    48   25   44 1
    49   25   45 1
@<TRIPOS>MOLECULE
ZINC04783896
   48    51     0     0     0
SMALL
USER_CHARGES

@<TRIPOS>ATOM
      1 C1          2.4858   -0.8220    0.8512 C.3       1 <0>        -0.1024
      2 C2          1.0715   -0.9975    0.3614 C.2       1 <0>        -0.1029
      3 C3          0.8233   -1.3729   -0.9456 C.2       1 <0>        -0.1577
      4 C4         -0.4605   -1.5221   -1.3542 C.2       1 <0>        -0.1716
      5 S1         -1.3690   -1.1269    0.1310 S.3       1 <0>         0.0556
      6 C5          0.0239   -0.7951    1.1974 C.2       1 <0>        -0.1781
      7 C6          0.0326   -0.3929    2.6497 C.3       1 <0>         0.4431
      8 H1          1.0560   -0.1679    2.9501 H         1 <0>         0.1272
      9 N1         -0.4718   -1.5146    3.4625 N.pl3     1 <0>        -0.7032
     10 C7         -1.8401   -1.6245    3.5675 C.2       1 <0>         0.0951
     11 C8         -2.6856   -0.5206    3.4060 C.2       1 <0>        -0.2517
     12 C9         -4.1057   -0.7928    3.5324 C.2       1 <0>        -0.0298
     13 C10        -4.4085   -2.0843    3.7972 C.2       1 <0>        -0.2156
     14 S2         -2.8421   -2.9092    3.8748 S.3       1 <0>         0.1995
     15 C11        -5.7737   -2.6698    3.9813 C.3       1 <0>        -0.0285
     16 C12        -6.8068   -1.6620    3.4564 C.3       1 <0>        -0.0681
     17 H2         -6.7638   -1.6284    2.3677 H         1 <0>         0.0754
     18 C13        -6.4818   -0.2780    4.0256 C.3       1 <0>        -0.1187
     19 C14        -5.1977    0.2579    3.3887 C.3       1 <0>        -0.0569
     20 C15        -8.2081   -2.0858    3.9011 C.3       1 <0>        -0.0624
     21 C16        -8.2677   -2.1261    5.4294 C.3       1 <0>        -0.1480
     22 C17        -9.2353   -1.0803    3.3770 C.3       1 <0>        -0.1450
     23 C18        -8.5224   -3.4747    3.3415 C.3       1 <0>        -0.1454
     24 C19        -2.0508    0.7948    3.1339 C.2       1 <0>         0.4659
     25 N2         -0.7857    0.8014    2.8173 N.2       1 <0>        -0.6433
     26 O1         -2.7603    1.9443    3.2116 O.3       1 <0>        -0.4519
     27 H3          2.8216   -1.7421    1.3294 H         1 <0>         0.0694
     28 H4          3.1367   -0.5925    0.0075 H         1 <0>         0.0684
     29 H5          2.5221   -0.0043    1.5710 H         1 <0>         0.0680
     30 H6          1.6401   -1.5445   -1.6310 H         1 <0>         0.1345
     31 H7         -0.8363   -1.8060   -2.3261 H         1 <0>         0.1857
     32 H8          0.1271   -2.1405    3.8989 H         1 <0>         0.4170
     33 H9         -5.8521   -3.6016    3.4211 H         1 <0>         0.0776
     34 H10        -5.9517   -2.8608    5.0395 H         1 <0>         0.0836
     35 H11        -7.3044    0.4041    3.8108 H         1 <0>         0.0738
     36 H12        -6.3473   -0.3528    5.1046 H         1 <0>         0.0677
     37 H13        -4.8932    1.1733    3.8960 H         1 <0>         0.0849
     38 H14        -5.3709    0.4631    2.3323 H         1 <0>         0.0762
     39 H15        -8.0437   -1.1367    5.8280 H         1 <0>         0.0585
     40 H16        -9.2660   -2.4281    5.7462 H         1 <0>         0.0538
     41 H17        -7.5359   -2.8425    5.8027 H         1 <0>         0.0581
     42 H18        -9.1929   -1.0516    2.2882 H         1 <0>         0.0547
     43 H19       -10.2336   -1.3822    3.6938 H         1 <0>         0.0547
     44 H20        -9.0114   -0.0908    3.7756 H         1 <0>         0.0594
     45 H21        -7.7906   -4.1910    3.7149 H         1 <0>         0.0571
     46 H22        -9.5207   -3.7766    3.6583 H         1 <0>         0.0549
     47 H23        -8.4800   -3.4459    2.2527 H         1 <0>         0.0549
     48 H24        -2.2452    2.7386    3.0144 H         1 <0>         0.4066
@<TRIPOS>BOND
     1    1    2 1
     2    1   27 1
     3    1   28 1
     4    1   29 1
     5    2    6 2
     6    2    3 1
     7    3    4 2
     8    3   30 1
     9    4    5 1
    10    4   31 1
    11    5    6 1
    12    6    7 1
    13    7    8 1
    14    7   25 1
    15    7    9 1
    16    9   10 1
    17    9   32 1
    18   10   14 1
    19   10   11 2
    20   11   12 1
    21   11   24 1
    22   12   19 1
    23   12   13 2
    24   13   14 1
    25   13   15 1
    26   15   16 1
    27   15   33 1
    28   15   34 1
    29   16   17 1
    30   16   18 1
    31   16   20 1
    32   18   19 1
    33   18   35 1
    34   18   36 1
    35   19   37 1
    36   19   38 1
    37   20   21 1
    38   20   22 1
    39   20   23 1
    40   21   39 1
    41   21   40 1
    42   21   41 1
    43   22   42 1
    44   22   43 1
    45   22   44 1
    46   23   45 1
    47   23   46 1
    48   23   47 1
    49   24   25 2
    50   24   26 1
    51   26   48 1
@<TRIPOS>MOLECULE
ZINC13342041
   34    36     0     0     0
SMALL
USER_CHARGES
3-(3,4-difluorophenyl)sulfonyloxynaphthalene-2-carboxylic acid
@<TRIPOS>ATOM
      1 C1          3.6380    6.1325   -0.0012 C.ar      1 <0>        -0.1220
      2 C2          4.8466    5.4381   -0.0169 C.ar      1 <0>        -0.1168
      3 C3          4.8736    4.0774   -0.0240 C.ar      1 <0>        -0.1050
      4 C4          3.6669    3.3563   -0.0154 C.ar      1 <0>        -0.0394
      5 C5          3.6640    1.9513   -0.0229 C.ar      1 <0>        -0.1366
      6 C6          2.4818    1.2719   -0.0148 C.ar      1 <0>         0.1142
      7 C7          1.2524    1.9654    0.0007 C.ar      1 <0>        -0.1000
      8 C8          1.2286    3.3511    0.0026 C.ar      1 <0>        -0.0451
      9 C9          2.4366    4.0629    0.0006 C.ar      1 <0>        -0.0509
     10 C10         2.4498    5.4698    0.0075 C.ar      1 <0>        -0.0933
     11 C11        -0.0144    1.2108    0.0087 C.2       1 <0>         0.4989
     12 O1          0.0021   -0.0041    0.0020 O.co2     1 <0>        -0.6216
     13 O2          2.4872   -0.0853   -0.0221 O.3       1 <0>        -0.6320
     14 S1          2.4764   -0.6969   -1.4158 S.o2      1 <0>         2.6918
     15 O3          2.2738   -2.0930   -1.2451 O.2       1 <0>        -0.9237
     16 O4          1.6112    0.1074   -2.2056 O.2       1 <0>        -0.9256
     17 C12         4.0952   -0.5008   -2.0834 C.ar      1 <0>        -0.6941
     18 C13         4.4093    0.6317   -2.8117 C.ar      1 <0>         0.0063
     19 C14         5.6801    0.7904   -3.3315 C.ar      1 <0>        -0.1457
     20 C15         6.6365   -0.1902   -3.1328 C.ar      1 <0>         0.1214
     21 C16         6.3198   -1.3285   -2.4073 C.ar      1 <0>         0.0450
     22 C17         5.0480   -1.4818   -1.8832 C.ar      1 <0>        -0.0202
     23 F1          7.2519   -2.2868   -2.2117 F         1 <0>        -0.1235
     24 F2          7.8774   -0.0382   -3.6449 F         1 <0>        -0.1205
     25 H1          3.6450    7.2125    0.0045 H         1 <0>         0.1224
     26 H2          5.7759    5.9883   -0.0232 H         1 <0>         0.1212
     27 H3          5.8181    3.5538   -0.0365 H         1 <0>         0.1254
     28 H4          4.5981    1.4094   -0.0347 H         1 <0>         0.1374
     29 H5          0.2863    3.8788    0.0100 H         1 <0>         0.1536
     30 H6          1.5211    6.0211    0.0201 H         1 <0>         0.1321
     31 H7          3.6621    1.3951   -2.9708 H         1 <0>         0.1607
     32 H8          5.9255    1.6775   -3.8965 H         1 <0>         0.1582
     33 H9          4.8000   -2.3682   -1.3182 H         1 <0>         0.1660
     34 O5         -1.1904    1.8686    0.0179 O.co2     1 <0>        -0.7384
@<TRIPOS>BOND
     1    1   10 ar
     2    1    2 ar
     3    1   25 1
     4    2    3 ar
     5    2   26 1
     6    3    4 ar
     7    3   27 1
     8    4    9 ar
     9    4    5 ar
    10    5    6 ar
    11    5   28 1
    12    6    7 ar
    13    6   13 1
    14    7    8 ar
    15    7   11 1
    16    8    9 ar
    17    8   29 1
    18    9   10 ar
    19   10   30 1
    20   11   12 2
    21   11   34 1
    22   13   14 1
    23   14   15 2
    24   14   16 2
    25   14   17 1
    26   17   22 ar
    27   17   18 ar
    28   18   19 ar
    29   18   31 1
    30   19   20 ar
    31   19   32 1
    32   20   21 ar
    33   20   24 1
    34   21   22 ar
    35   21   23 1
    36   22   33 1
@<TRIPOS>MOLECULE
ZINC02379996
   39    41     0     0     0
SMALL
USER_CHARGES
5-(4-bromophenyl)-4-[(4-dimethylaminophenyl)methyleneamino]-2H-1,2,4-triazole-3-thione
@<TRIPOS>ATOM
      1 C1          3.6287    3.1654   -0.0165 C.3       1 <0>         0.0843
      2 N1          2.3517    3.8833   -0.0009 N.pl3     1 <0>        -0.6336
      3 C2          2.3350    5.3482    0.0061 C.3       1 <0>         0.0834
      4 C3          1.1523    3.1724    0.0071 C.ar      1 <0>         0.2354
      5 C4          1.1701    1.7815    0.0005 C.ar      1 <0>        -0.2098
      6 C5         -0.0126    1.0758    0.0080 C.ar      1 <0>        -0.0276
      7 C6         -1.2321    1.7592    0.0174 C.ar      1 <0>        -0.1248
      8 C7         -1.2460    3.1570    0.0295 C.ar      1 <0>        -0.0126
      9 C8         -0.0593    3.8558    0.0214 C.ar      1 <0>        -0.2096
     10 C9         -2.4997    1.0079    0.0198 C.2       1 <0>         0.1818
     11 N2         -3.6316    1.6442    0.0286 N.2       1 <0>        -0.2450
     12 N3         -4.8368    0.9299    0.0308 N.pl3     1 <0>        -0.3709
     13 C10        -5.5278    0.5113    1.1518 C.2       1 <0>         0.1958
     14 N4         -6.6010   -0.1207    0.7647 N.2       1 <0>        -0.2960
     15 N5         -6.6223   -0.1215   -0.6367 N.2       1 <0>        -0.3689
     16 C11        -5.5245    0.5379   -1.0602 C.2       1 <0>         0.3958
     17 S1         -5.0823    0.8223   -2.6894 S.3       1 <0>        -0.7577
     18 C12        -5.1189    0.7410    2.5550 C.ar      1 <0>         0.0283
     19 C13        -3.8146    1.1407    2.8479 C.ar      1 <0>        -0.1129
     20 C14        -3.4405    1.3585    4.1578 C.ar      1 <0>        -0.0839
     21 C15        -4.3535    1.1710    5.1815 C.ar      1 <0>        -0.0933
     22 C16        -5.6474    0.7690    4.8974 C.ar      1 <0>        -0.0881
     23 C17        -6.0344    0.5533    3.5910 C.ar      1 <0>        -0.0820
     24 Br1        -3.8308    1.4647    6.9749 Br        1 <0>        -0.0602
     25 H1          3.4401    2.0817   -0.0198 H         1 <0>         0.0819
     26 H2          4.2110    3.4336    0.8774 H         1 <0>         0.0545
     27 H3          4.1938    3.4419   -0.9188 H         1 <0>         0.0548
     28 H4          1.2938    5.7029    0.0177 H         1 <0>         0.0829
     29 H5          2.8407    5.7249   -0.8952 H         1 <0>         0.0551
     30 H6          2.8579    5.7166    0.9010 H         1 <0>         0.0548
     31 H7          2.1126    1.2543   -0.0110 H         1 <0>         0.1287
     32 H8          0.0021   -0.0041    0.0020 H         1 <0>         0.1289
     33 H9         -2.1862    3.6883    0.0406 H         1 <0>         0.1363
     34 H10        -0.0693    4.9358    0.0266 H         1 <0>         0.1284
     35 H11        -2.4871   -0.0920    0.0141 H         1 <0>         0.1170
     36 H12        -3.1003    1.2829    2.0504 H         1 <0>         0.1351
     37 H13        -2.4324    1.6718    4.3854 H         1 <0>         0.1337
     38 H14        -6.3551    0.6237    5.7001 H         1 <0>         0.1361
     39 H15        -7.0440    0.2393    3.3705 H         1 <0>         0.1440
@<TRIPOS>BOND
     1    1    2 1
     2    1   25 1
     3    1   26 1
     4    1   27 1
     5    2    3 1
     6    2    4 1
     7    3   28 1
     8    3   29 1
     9    3   30 1
    10    4    9 ar
    11    4    5 ar
    12    5    6 ar
    13    5   31 1
    14    6    7 ar
    15    6   32 1
    16    7    8 ar
    17    7   10 1
    18    8    9 ar
    19    8   33 1
    20    9   34 1
    21   10   11 2
    22   10   35 1
    23   11   12 1
    24   12   16 1
    25   12   13 1
    26   13   14 2
    27   13   18 1
    28   14   15 1
    29   15   16 2
    30   16   17 1
    31   18   23 ar
    32   18   19 ar
    33   19   20 ar
    34   19   36 1
    35   20   21 ar
    36   20   37 1
    37   21   22 ar
    38   21   24 1
    39   22   23 ar
    40   22   38 1
    41   23   39 1
@<TRIPOS>MOLECULE
ZINC08656161
   45    49     0     0     0
SMALL
USER_CHARGES

@<TRIPOS>ATOM
      1 C1         -0.0157    1.3058    0.0092 C.2       1 <0>        -0.1727
      2 C2          0.0021   -0.0041    0.0020 C.2       1 <0>        -0.1348
      3 C3          1.3172   -0.7397   -0.0145 C.3       1 <0>        -0.0993
      4 S1          1.5068   -1.6740    1.5288 S.3       1 <0>         0.0367
      5 C4          3.0708   -2.4675    1.3573 C.2       1 <0>         0.1248
      6 N1          3.8840   -2.3711    0.3255 N.2       1 <0>        -0.2779
      7 N2          4.9410   -3.0846    0.5170 N.2       1 <0>        -0.3191
      8 C5          4.8634   -3.6829    1.6778 C.2       1 <0>         0.3979
      9 N3          3.6647   -3.2857    2.2569 N.pl3     1 <0>        -0.4486
     10 C6          3.2955   -3.7115    3.5104 C.2       1 <0>         0.4818
     11 C7          4.0884   -4.6582    4.0986 C.2       1 <0>        -0.3316
     12 C8          5.3143   -5.0093    3.4905 C.2       1 <0>         0.2718
     13 N4          5.6895   -4.5263    2.3102 N.2       1 <0>        -0.5223
     14 C9          6.2286   -5.9452    4.1874 C.ar      1 <0>        -0.0381
     15 C10         7.5713   -6.0262    3.8240 C.ar      1 <0>        -0.0718
     16 C11         8.4109   -6.8875    4.5016 C.ar      1 <0>        -0.1382
     17 C12         7.9216   -7.6642    5.5372 C.ar      1 <0>        -0.1111
     18 C13         6.5877   -7.5899    5.8966 C.ar      1 <0>        -0.1302
     19 C14         5.7378   -6.7385    5.2196 C.ar      1 <0>        -0.0463
     20 C15         4.2786   -6.6867    5.5685 C.3       1 <0>        -0.0709
     21 C16         3.7130   -5.2753    5.4154 C.3       1 <0>         0.0440
     22 C17         4.2474   -4.3917    6.5575 C.3       1 <0>        -0.1058
     23 C18         3.0063   -3.8471    7.2955 C.3       1 <0>        -0.1152
     24 C19         1.9298   -4.9347    7.0570 C.3       1 <0>        -0.1132
     25 C20         2.1866   -5.3680    5.5925 C.3       1 <0>        -0.1246
     26 O1          2.2279   -3.1521    4.1256 O.3       1 <0>        -0.6195
     27 H1          0.9122    1.8585    0.0033 H         1 <0>         0.0993
     28 H2         -0.9582    1.8330    0.0166 H         1 <0>         0.1028
     29 H3         -0.9258   -0.5567    0.0079 H         1 <0>         0.1175
     30 H4          1.3385   -1.4270   -0.8602 H         1 <0>         0.0962
     31 H5          2.1332   -0.0231   -0.1080 H         1 <0>         0.0910
     32 H6          7.9546   -5.4155    3.0200 H         1 <0>         0.1345
     33 H7          9.4522   -6.9548    4.2236 H         1 <0>         0.1205
     34 H8          8.5834   -8.3334    6.0670 H         1 <0>         0.1182
     35 H9          6.2113   -8.1987    6.7052 H         1 <0>         0.1217
     36 H10         3.7268   -7.3575    4.9069 H         1 <0>         0.0740
     37 H11         4.1378   -7.0132    6.5992 H         1 <0>         0.0746
     38 H12         4.8572   -4.9867    7.2350 H         1 <0>         0.0539
     39 H13         4.8315   -3.5686    6.1482 H         1 <0>         0.0554
     40 H14         3.2136   -3.7410    8.3601 H         1 <0>         0.0488
     41 H15         2.6929   -2.8944    6.8695 H         1 <0>         0.0694
     42 H16         2.0748   -5.7739    7.7371 H         1 <0>         0.0511
     43 H17         0.9287   -4.5188    7.1692 H         1 <0>         0.0563
     44 H18         1.6365   -4.7545    4.8965 H         1 <0>         0.1100
     45 H19         1.8701   -6.4149    5.4667 H         1 <0>         0.0390
@<TRIPOS>BOND
     1    1    2 2
     2    1   27 1
     3    1   28 1
     4    2    3 1
     5    2   29 1
     6    3    4 1
     7    3   30 1
     8    3   31 1
     9    4    5 1
    10    5    9 1
    11    5    6 2
    12    6    7 1
    13    7    8 2
    14    8   13 1
    15    8    9 1
    16    9   10 1
    17   10   11 2
    18   10   26 1
    19   11   21 1
    20   11   12 1
    21   12   13 2
    22   12   14 1
    23   14   19 ar
    24   14   15 ar
    25   15   16 ar
    26   15   32 1
    27   16   17 ar
    28   16   33 1
    29   17   18 ar
    30   17   34 1
    31   18   19 ar
    32   18   35 1
    33   19   20 1
    34   20   21 1
    35   20   36 1
    36   20   37 1
    37   21   25 1
    38   21   22 1
    39   22   23 1
    40   22   38 1
    41   22   39 1
    42   23   24 1
    43   23   40 1
    44   23   41 1
    45   24   25 1
    46   24   42 1
    47   24   43 1
    48   25   44 1
    49   25   45 1
@<TRIPOS>MOLECULE
ZINC13810912
   36    39     0     0     0
SMALL
USER_CHARGES

@<TRIPOS>ATOM
      1 C1          0.1150    1.4685   -1.1875 C.3       1 <0>         0.0832
      2 N1          0.1195    0.0053   -1.1148 N.am      1 <0>        -0.5515
      3 C2         -1.0086   -0.7910   -1.2798 C.ar      1 <0>         0.1448
      4 C3         -2.3365   -0.4692   -1.5354 C.ar      1 <0>        -0.1484
      5 C4         -3.2813   -1.4688   -1.6568 C.ar      1 <0>        -0.0851
      6 C5         -2.9219   -2.8001   -1.5264 C.ar      1 <0>        -0.1508
      7 C6         -1.6088   -3.1405   -1.2725 C.ar      1 <0>        -0.0569
      8 C7         -0.6480   -2.1400   -1.1483 C.ar      1 <0>        -0.0923
      9 C8          0.8056   -2.1610   -0.8843 C.2       1 <0>        -0.0842
     10 C9          1.6065   -3.2647   -0.6855 C.2       1 <0>        -0.0829
     11 C10         1.2342   -4.7026   -0.5364 C.2       1 <0>         0.5329
     12 O1          0.0755   -5.0771   -0.5803 O.2       1 <0>        -0.5119
     13 N2          2.2298   -5.5405   -0.3555 N.2       1 <0>        -0.7066
     14 C11         3.4930   -5.1459   -0.3063 C.2       1 <0>         0.4323
     15 S1          3.3856   -3.3788   -0.5414 S.3       1 <0>        -0.0420
     16 N3          4.6113   -5.9090   -0.1251 N.2       1 <0>        -0.5401
     17 C12         4.5200   -7.3034   -0.1645 C.ar      1 <0>         0.1766
     18 C13         3.4803   -7.9137   -0.8548 C.ar      1 <0>        -0.1380
     19 C14         3.3923   -9.2914   -0.8922 C.ar      1 <0>        -0.0909
     20 C15         4.3373  -10.0648   -0.2431 C.ar      1 <0>        -0.1471
     21 C16         5.3746   -9.4616    0.4462 C.ar      1 <0>        -0.0165
     22 C17         5.4724   -8.0823    0.4820 C.ar      1 <0>        -0.0486
     23 Cl1         6.7778   -7.3252    1.3401 Cl        1 <0>        -0.0563
     24 Cl2         6.5579  -10.4366    1.2603 Cl        1 <0>        -0.0717
     25 C18         1.2154   -0.7383   -0.8860 C.2       1 <0>         0.5562
     26 O2          2.3425   -0.3174   -0.7092 O.2       1 <0>        -0.4884
     27 H1          1.1261    1.8433   -1.0280 H         1 <0>         0.0901
     28 H2         -0.2381    1.7824   -2.1698 H         1 <0>         0.0692
     29 H3         -0.5462    1.8685   -0.4188 H         1 <0>         0.0691
     30 H4         -2.6299    0.5650   -1.6389 H         1 <0>         0.1220
     31 H5         -4.3109   -1.2100   -1.8551 H         1 <0>         0.1255
     32 H6         -3.6703   -3.5727   -1.6231 H         1 <0>         0.1265
     33 H7         -1.3276   -4.1782   -1.1703 H         1 <0>         0.1737
     34 H8          2.7411   -7.3111   -1.3616 H         1 <0>         0.1519
     35 H9          2.5839   -9.7656   -1.4289 H         1 <0>         0.1270
     36 H10         4.2654  -11.1420   -0.2740 H         1 <0>         0.1294
@<TRIPOS>BOND
     1    1    2 1
     2    1   27 1
     3    1   28 1
     4    1   29 1
     5    2   25 am
     6    2    3 1
     7    3    8 ar
     8    3    4 ar
     9    4    5 ar
    10    4   30 1
    11    5    6 ar
    12    5   31 1
    13    6    7 ar
    14    6   32 1
    15    7    8 ar
    16    7   33 1
    17    8    9 1
    18    9   10 2
    19    9   25 1
    20   10   15 1
    21   10   11 1
    22   11   12 2
    23   11   13 1
    24   13   14 2
    25   14   15 1
    26   14   16 1
    27   16   17 1
    28   17   22 ar
    29   17   18 ar
    30   18   19 ar
    31   18   34 1
    32   19   20 ar
    33   19   35 1
    34   20   21 ar
    35   20   36 1
    36   21   22 ar
    37   21   24 1
    38   22   23 1
    39   25   26 2
@<TRIPOS>MOLECULE
ZINC59248370
   37    38     0     0     0
SMALL
USER_CHARGES

@<TRIPOS>ATOM
      1 C1          3.3003    0.8317    1.0077 C.3       1 <0>        -0.1094
      2 C2          2.3570   -0.2563    0.5631 C.ar      1 <0>        -0.0758
      3 C3          2.5825   -0.9248   -0.6222 C.ar      1 <0>        -0.0778
      4 C4          1.7170   -1.9245   -1.0321 C.ar      1 <0>        -0.1042
      5 C5          0.6204   -2.2605   -0.2561 C.ar      1 <0>        -0.0778
      6 C6          0.3835   -1.6000    0.9310 C.ar      1 <0>        -0.1492
      7 C7          1.2559   -0.5939    1.3530 C.ar      1 <0>         0.1160
      8 N1          1.0297    0.0617    2.5329 N.2       1 <0>        -0.5042
      9 C8          0.7732   -0.6162    3.6164 C.2       1 <0>         0.2395
     10 C9          0.4474    0.0891    4.8653 C.ar      1 <0>        -0.1564
     11 C10         0.4064    1.4874    4.8916 C.ar      1 <0>        -0.0174
     12 C11         0.1009    2.1430    6.0633 C.ar      1 <0>        -0.2332
     13 C12        -0.1665    1.4181    7.2186 C.ar      1 <0>         0.1765
     14 C13        -0.1271    0.0289    7.1977 C.ar      1 <0>        -0.1730
     15 C14         0.1717   -0.6362    6.0296 C.ar      1 <0>        -0.0383
     16 O1         -0.4668    2.0691    8.3715 O.3       1 <0>        -0.2731
     17 C15        -0.5965    3.4904    8.2991 C.3       1 <0>         0.0087
     18 H1         -1.0280    3.7673    7.3372 H         1 <0>         0.0710
     19 C16         0.7827    4.1364    8.4444 C.3       1 <0>        -0.1567
     20 C17        -1.4954    3.9699    9.4096 C.2       1 <0>         0.5053
     21 O2         -1.9064    3.1821   10.2444 O.co2     1 <0>        -0.6704
     22 O3         -1.8116    5.1457    9.4731 O.co2     1 <0>        -0.6836
     23 Br1         2.0332   -2.8348   -2.6591 Br        1 <0>        -0.0564
     24 H2          4.0973    0.3973    1.6112 H         1 <0>         0.0688
     25 H3          3.7311    1.3189    0.1330 H         1 <0>         0.0658
     26 H4          2.7546    1.5658    1.6006 H         1 <0>         0.0813
     27 H5          3.4359   -0.6675   -1.2320 H         1 <0>         0.1345
     28 H6         -0.0511   -3.0413   -0.5814 H         1 <0>         0.1327
     29 H7         -0.4725   -1.8624    1.5350 H         1 <0>         0.1318
     30 H8          0.8000   -1.6957    3.5970 H         1 <0>         0.1060
     31 H9          0.6145    2.0516    3.9945 H         1 <0>         0.1328
     32 H10         0.0694    3.2223    6.0847 H         1 <0>         0.1349
     33 H11        -0.3357   -0.5299    8.0980 H         1 <0>         0.1357
     34 H12         0.1977   -1.7157    6.0133 H         1 <0>         0.1307
     35 H13         1.4329    3.7896    7.6412 H         1 <0>         0.0490
     36 H14         0.6838    5.2205    8.3892 H         1 <0>         0.0753
     37 H15         1.2142    3.8595    9.4063 H         1 <0>         0.0608
@<TRIPOS>BOND
     1    1    2 1
     2    1   24 1
     3    1   25 1
     4    1   26 1
     5    2    7 ar
     6    2    3 ar
     7    3    4 ar
     8    3   27 1
     9    4    5 ar
    10    4   23 1
    11    5    6 ar
    12    5   28 1
    13    6    7 ar
    14    6   29 1
    15    7    8 1
    16    8    9 2
    17    9   10 1
    18    9   30 1
    19   10   15 ar
    20   10   11 ar
    21   11   12 ar
    22   11   31 1
    23   12   13 ar
    24   12   32 1
    25   13   14 ar
    26   13   16 1
    27   14   15 ar
    28   14   33 1
    29   15   34 1
    30   16   17 1
    31   17   18 1
    32   17   19 1
    33   17   20 1
    34   19   35 1
    35   19   36 1
    36   19   37 1
    37   20   21 2
    38   20   22 1
@<TRIPOS>MOLECULE
ZINC66722857
   36    36     0     0     0
SMALL
USER_CHARGES

@<TRIPOS>ATOM
      1 C1         -0.0187    1.5258    0.0104 C.3       1 <0>        -0.1514
      2 C2          0.0021   -0.0041    0.0020 C.3       1 <0>        -0.0576
      3 H1          0.5293   -0.3651    0.8851 H         1 <0>         0.0788
      4 C3          0.7182   -0.4975   -1.2568 C.3       1 <0>        -0.0822
      5 C4          2.1652   -0.0794   -1.2080 C.2       1 <0>         0.4890
      6 O1          2.9964   -0.4065   -2.2192 O.3       1 <0>        -0.7287
      7 N1          2.6093    0.5914   -0.1991 N.2       1 <0>        -1.0431
      8 S1          4.1994    1.0509   -0.1455 S.o2      1 <0>         2.6623
      9 O2          4.9636   -0.1424   -0.0388 O.2       1 <0>        -0.9941
     10 O3          4.3882    1.9846   -1.1999 O.2       1 <0>        -0.9952
     11 C5          4.4354    1.9362    1.3595 C.2       1 <0>        -0.6674
     12 C6          4.7983    1.4666    2.5779 C.2       1 <0>        -0.0447
     13 C7          4.9240    2.3557    3.6291 C.2       1 <0>        -0.1315
     14 C8          4.6802    3.6717    3.4094 C.2       1 <0>        -0.1746
     15 S2          4.2662    3.6856    1.6729 S.3       1 <0>         0.2105
     16 Br1         4.7645    5.1176    4.6252 Br        1 <0>         0.0350
     17 C9         -1.4333   -0.5336    0.0129 C.3       1 <0>        -0.0716
     18 C10        -2.1733   -0.0268   -1.2266 C.3       1 <0>        -0.1438
     19 C11        -1.4126   -2.0635    0.0045 C.3       1 <0>        -0.1435
     20 C12        -2.1494   -0.0402    1.2717 C.3       1 <0>        -0.1379
     21 H2          1.0039    1.9031    0.0027 H         1 <0>         0.0893
     22 H3         -0.5459    1.8868   -0.8726 H         1 <0>         0.0384
     23 H4         -0.5289    1.8773    0.9072 H         1 <0>         0.0397
     24 H5          0.6556   -1.5845   -1.3079 H         1 <0>         0.0796
     25 H6          0.2444   -0.0644   -2.1377 H         1 <0>         0.0784
     26 H7          4.9862    0.4134    2.7255 H         1 <0>         0.1527
     27 H8          5.2114    2.0076    4.6103 H         1 <0>         0.1448
     28 H9         -1.6631   -0.3783   -2.1234 H         1 <0>         0.0573
     29 H10        -3.1959   -0.4041   -1.2189 H         1 <0>         0.0441
     30 H11        -2.1881    1.0631   -1.2207 H         1 <0>         0.0571
     31 H12        -0.8854   -2.4246    0.8875 H         1 <0>         0.0528
     32 H13        -2.4352   -2.4408    0.0122 H         1 <0>         0.0458
     33 H14        -0.9024   -2.4150   -0.8923 H         1 <0>         0.0588
     34 H15        -2.1642    1.0497    1.2777 H         1 <0>         0.0568
     35 H16        -3.1720   -0.4175    1.2794 H         1 <0>         0.0446
     36 H17        -1.6223   -0.4013    2.1547 H         1 <0>         0.0514
@<TRIPOS>BOND
     1    1    2 1
     2    1   21 1
     3    1   22 1
     4    1   23 1
     5    2    3 1
     6    2    4 1
     7    2   17 1
     8    4    5 1
     9    4   24 1
    10    4   25 1
    11    5    6 1
    12    5    7 2
    13    7    8 1
    14    8    9 2
    15    8   10 2
    16    8   11 1
    17   11   15 1
    18   11   12 2
    19   12   13 1
    20   12   26 1
    21   13   14 2
    22   13   27 1
    23   14   15 1
    24   14   16 1
    25   17   18 1
    26   17   19 1
    27   17   20 1
    28   18   28 1
    29   18   29 1
    30   18   30 1
    31   19   31 1
    32   19   32 1
    33   19   33 1
    34   20   34 1
    35   20   35 1
    36   20   36 1
@<TRIPOS>MOLECULE
ZINC05237642
   44    48     0     0     0
SMALL
USER_CHARGES
1-naphthylmethylsulfanylBLAHone
@<TRIPOS>ATOM
      1 C1          2.2865    5.2702    0.0076 C.ar      1 <0>        -0.1156
      2 C2          1.0643    5.9401    0.0230 C.ar      1 <0>        -0.1061
      3 C3         -0.1108    5.2538    0.0306 C.ar      1 <0>        -0.1125
      4 C4         -0.0954    3.8484    0.0237 C.ar      1 <0>        -0.0337
      5 C5          1.1475    3.1672    0.0081 C.ar      1 <0>        -0.0542
      6 C6          2.3404    3.9104    0.0001 C.ar      1 <0>        -0.1020
      7 C7          1.1629    1.7623    0.0004 C.ar      1 <0>        -0.0887
      8 C8         -0.0126    1.0758    0.0080 C.ar      1 <0>        -0.1202
      9 C9         -1.2344    1.7455    0.0174 C.ar      1 <0>        -0.0836
     10 C10        -1.2880    3.1056    0.0315 C.ar      1 <0>        -0.0819
     11 C11        -2.6196    3.8110    0.0475 C.3       1 <0>        -0.0600
     12 S1         -3.1690    4.1015   -1.6525 S.3       1 <0>         0.0230
     13 C12        -4.7020    4.9136   -1.3441 C.2       1 <0>         0.3737
     14 N1         -5.4687    5.3259   -2.3952 N.am      1 <0>        -0.6244
     15 H1         -5.1487    5.1645   -3.3288 H         1 <0>         0.4296
     16 C13        -6.6471    5.9455   -2.1991 C.2       1 <0>         0.5616
     17 O1         -7.3227    6.3034   -3.1486 O.2       1 <0>        -0.5170
     18 C14        -7.0944    6.1816   -0.8606 C.2       1 <0>        -0.2504
     19 C15        -8.3282    6.8343   -0.4184 C.2       1 <0>        -0.0468
     20 C16        -8.5235    6.9370    0.9117 C.2       1 <0>        -0.1697
     21 S2         -7.0974    6.1825    1.6460 S.3       1 <0>         0.1466
     22 C17        -6.2403    5.7292    0.1592 C.2       1 <0>         0.1162
     23 N2         -5.0900    5.1196   -0.1016 N.2       1 <0>        -0.4971
     24 C18        -9.6946    7.5560    1.6120 C.3       1 <0>        -0.0367
     25 C19       -10.4802    8.3948    0.5939 C.3       1 <0>        -0.1152
     26 C20       -10.6907    7.5599   -0.6726 C.3       1 <0>        -0.1231
     27 C21        -9.3593    7.3796   -1.4027 C.3       1 <0>        -0.0602
     28 H2          3.2046    5.8389    0.0011 H         1 <0>         0.1254
     29 H3          1.0496    7.0200    0.0286 H         1 <0>         0.1253
     30 H4         -1.0504    5.7863    0.0418 H         1 <0>         0.1271
     31 H5          3.2947    3.4051   -0.0122 H         1 <0>         0.1296
     32 H6          2.1024    1.2298   -0.0118 H         1 <0>         0.1311
     33 H7          0.0021   -0.0041    0.0020 H         1 <0>         0.1293
     34 H8         -2.1526    1.1769    0.0184 H         1 <0>         0.1293
     35 H9         -3.3524    3.1922    0.5654 H         1 <0>         0.1165
     36 H10        -2.5192    4.7651    0.5649 H         1 <0>         0.1153
     37 H11       -10.3365    6.7731    2.0159 H         1 <0>         0.0861
     38 H12        -9.3422    8.1955    2.4213 H         1 <0>         0.0843
     39 H13       -11.4471    8.6698    1.0153 H         1 <0>         0.0764
     40 H14        -9.9163    9.2948    0.3489 H         1 <0>         0.0694
     41 H15       -11.0896    6.5828   -0.4002 H         1 <0>         0.0662
     42 H16       -11.3964    8.0691   -1.3290 H         1 <0>         0.0720
     43 H17        -9.4863    6.6764   -2.2257 H         1 <0>         0.0859
     44 H18        -9.0231    8.3406   -1.7920 H         1 <0>         0.0791
@<TRIPOS>BOND
     1    1    6 ar
     2    1    2 ar
     3    1   28 1
     4    2    3 ar
     5    2   29 1
     6    3    4 ar
     7    3   30 1
     8    4   10 ar
     9    4    5 ar
    10    5    6 ar
    11    5    7 ar
    12    6   31 1
    13    7    8 ar
    14    7   32 1
    15    8    9 ar
    16    8   33 1
    17    9   10 ar
    18    9   34 1
    19   10   11 1
    20   11   12 1
    21   11   35 1
    22   11   36 1
    23   12   13 1
    24   13   23 2
    25   13   14 1
    26   14   15 1
    27   14   16 am
    28   16   17 2
    29   16   18 1
    30   18   22 2
    31   18   19 1
    32   19   27 1
    33   19   20 2
    34   20   21 1
    35   20   24 1
    36   21   22 1
    37   22   23 1
    38   24   25 1
    39   24   37 1
    40   24   38 1
    41   25   26 1
    42   25   39 1
    43   25   40 1
    44   26   27 1
    45   26   41 1
    46   26   42 1
    47   27   43 1
    48   27   44 1
@<TRIPOS>MOLECULE
ZINC36813676
   38    41     0     0     0
SMALL
USER_CHARGES

@<TRIPOS>ATOM
      1 C1         -0.0168    1.3849    0.0097 C.ar      1 <0>        -0.1952
      2 C2          1.1706    2.0901    0.0021 C.ar      1 <0>        -0.0353
      3 C3          2.3778    1.4148   -0.0135 C.ar      1 <0>        -0.1576
      4 C4          2.3998    0.0317   -0.0216 C.ar      1 <0>        -0.0355
      5 C5          1.2159   -0.6793   -0.0141 C.ar      1 <0>        -0.1964
      6 C6          0.0021   -0.0041    0.0020 C.ar      1 <0>         0.2384
      7 N1         -1.1973   -0.7204    0.0101 N.pl3     1 <0>        -0.7348
      8 C7         -1.1757   -2.1852    0.0020 C.3       1 <0>         0.1622
      9 C8         -1.0567   -2.6856   -1.4390 C.3       1 <0>        -0.1000
     10 C9         -1.0342   -4.2154   -1.4474 C.3       1 <0>        -0.1080
     11 C10        -2.3277   -4.7480   -0.8277 C.3       1 <0>        -0.0882
     12 C11        -3.5249   -4.2511   -1.6406 C.3       1 <0>        -0.1086
     13 C12        -3.5475   -2.7213   -1.6322 C.3       1 <0>        -0.0873
     14 C13        -2.2539   -2.1887   -2.2518 C.3       1 <0>        -0.1044
     15 C14        -3.6664   -2.2209   -0.1912 C.3       1 <0>        -0.1087
     16 C15        -2.4692   -2.7178    0.6217 C.3       1 <0>        -0.0917
     17 C16        -2.4467   -4.2476    0.6132 C.3       1 <0>        -0.1059
     18 I1          4.1764    2.4891   -0.0256 I         1 <0>        -0.0565
     19 H1         -0.9589    1.9126    0.0260 H         1 <0>         0.1259
     20 H2          1.1566    3.1700    0.0080 H         1 <0>         0.1263
     21 H3          3.3439   -0.4927   -0.0342 H         1 <0>         0.1258
     22 H4          1.2337   -1.7591   -0.0212 H         1 <0>         0.1278
     23 H5         -2.0444   -0.2479    0.0210 H         1 <0>         0.3999
     24 H6         -0.3228   -2.5392    0.5811 H         1 <0>         0.0799
     25 H7         -0.1352   -2.3062   -1.8804 H         1 <0>         0.0732
     26 H8         -0.9494   -4.5719   -2.4740 H         1 <0>         0.0661
     27 H9         -0.1813   -4.5694   -0.8683 H         1 <0>         0.0632
     28 H10        -2.3117   -5.8378   -0.8337 H         1 <0>         0.0723
     29 H11        -3.4402   -4.6075   -2.6672 H         1 <0>         0.0626
     30 H12        -4.4465   -4.6305   -1.1992 H         1 <0>         0.0622
     31 H13        -4.4004   -2.3673   -2.2113 H         1 <0>         0.0699
     32 H14        -2.2700   -1.0988   -2.2458 H         1 <0>         0.0623
     33 H15        -2.1692   -2.5452   -3.2784 H         1 <0>         0.0617
     34 H16        -3.6825   -1.1310   -0.1852 H         1 <0>         0.0589
     35 H17        -4.5880   -2.6003    0.2502 H         1 <0>         0.0667
     36 H18        -2.5540   -2.3613    1.6482 H         1 <0>         0.0758
     37 H19        -3.3682   -4.6270    1.0547 H         1 <0>         0.0682
     38 H20        -1.5938   -4.6016    1.1923 H         1 <0>         0.0650
@<TRIPOS>BOND
     1    1    6 ar
     2    1    2 ar
     3    1   19 1
     4    2    3 ar
     5    2   20 1
     6    3    4 ar
     7    3   18 1
     8    4    5 ar
     9    4   21 1
    10    5    6 ar
    11    5   22 1
    12    6    7 1
    13    7    8 1
    14    7   23 1
    15    8   16 1
    16    8    9 1
    17    8   24 1
    18    9   14 1
    19    9   10 1
    20    9   25 1
    21   10   11 1
    22   10   26 1
    23   10   27 1
    24   11   17 1
    25   11   12 1
    26   11   28 1
    27   12   13 1
    28   12   29 1
    29   12   30 1
    30   13   14 1
    31   13   15 1
    32   13   31 1
    33   14   32 1
    34   14   33 1
    35   15   16 1
    36   15   34 1
    37   15   35 1
    38   16   17 1
    39   16   36 1
    40   17   37 1
    41   17   38 1
@<TRIPOS>MOLECULE
ZINC37121455
   39    40     0     0     0
SMALL
USER_CHARGES

@<TRIPOS>ATOM
      1 C1         -0.4126    1.4802    0.1900 C.3       1 <0>        -0.1185
      2 C2         -0.2894   -0.0208    0.1349 C.ar      1 <0>        -0.0796
      3 C3         -0.1568   -0.6591   -1.0843 C.ar      1 <0>        -0.1122
      4 C4         -0.0438   -2.0357   -1.1349 C.ar      1 <0>        -0.0747
      5 C5         -0.0628   -2.7743    0.0338 C.ar      1 <0>        -0.0955
      6 C6         -0.1944   -2.1360    1.2526 C.ar      1 <0>        -0.1071
      7 C7         -0.3032   -0.7587    1.3035 C.ar      1 <0>        -0.0851
      8 C8         -0.4413   -0.0623    2.6328 C.3       1 <0>        -0.1184
      9 C9          0.0595   -4.2753   -0.0215 C.3       1 <0>         0.1864
     10 H1          0.6930   -4.5576   -0.8623 H         1 <0>         0.0933
     11 C10        -1.3287   -4.8939   -0.1987 C.3       1 <0>        -0.1664
     12 N1          0.6559   -4.7629    1.2246 N.pl3     1 <0>        -0.7307
     13 C11         1.3508   -5.9750    1.2391 C.ar      1 <0>         0.2551
     14 C12         1.4818   -6.7160    0.0719 C.ar      1 <0>        -0.1687
     15 C13         2.1697   -7.9145    0.0897 C.ar      1 <0>        -0.0254
     16 C14         2.7276   -8.3763    1.2690 C.ar      1 <0>        -0.1482
     17 C15         2.5985   -7.6412    2.4327 C.ar      1 <0>        -0.0331
     18 C16         1.9172   -6.4389    2.4204 C.ar      1 <0>        -0.1608
     19 Br1         1.7485   -5.4302    4.0110 Br        1 <0>        -0.0449
     20 Br2         2.3483   -8.9247   -1.4988 Br        1 <0>        -0.0398
     21 C17         0.0997   -2.7316   -2.4638 C.3       1 <0>        -0.1230
     22 H2          0.5801    1.9237    0.2669 H         1 <0>         0.0718
     23 H3         -0.9013    1.8382   -0.7162 H         1 <0>         0.0673
     24 H4         -1.0058    1.7643    1.0592 H         1 <0>         0.0697
     25 H5         -0.1420   -0.0822   -1.9971 H         1 <0>         0.1248
     26 H6         -0.2096   -2.7130    2.1654 H         1 <0>         0.1168
     27 H7         -1.4971    0.0240    2.8897 H         1 <0>         0.0716
     28 H8          0.0734   -0.6398    3.4007 H         1 <0>         0.0659
     29 H9         -0.0003    0.9324    2.5694 H         1 <0>         0.0704
     30 H10        -1.2402   -5.9796   -0.2386 H         1 <0>         0.0653
     31 H11        -1.9622   -4.6116    0.6422 H         1 <0>         0.0633
     32 H12        -1.7724   -4.5311   -1.1258 H         1 <0>         0.0713
     33 H13         0.5684   -4.2442    2.0396 H         1 <0>         0.4052
     34 H14         1.0464   -6.3562   -0.8486 H         1 <0>         0.1405
     35 H15         3.2647   -9.3132    1.2802 H         1 <0>         0.1392
     36 H16         3.0344   -8.0047    3.3515 H         1 <0>         0.1415
     37 H17         1.1565   -2.8180   -2.7165 H         1 <0>         0.0733
     38 H18        -0.3417   -3.7264   -2.4026 H         1 <0>         0.0693
     39 H19        -0.4119   -2.1539   -3.2336 H         1 <0>         0.0706
@<TRIPOS>BOND
     1    1    2 1
     2    1   22 1
     3    1   23 1
     4    1   24 1
     5    2    7 ar
     6    2    3 ar
     7    3    4 ar
     8    3   25 1
     9    4    5 ar
    10    4   21 1
    11    5    6 ar
    12    5    9 1
    13    6    7 ar
    14    6   26 1
    15    7    8 1
    16    8   27 1
    17    8   28 1
    18    8   29 1
    19    9   10 1
    20    9   11 1
    21    9   12 1
    22   11   30 1
    23   11   31 1
    24   11   32 1
    25   12   13 1
    26   12   33 1
    27   13   18 ar
    28   13   14 ar
    29   14   15 ar
    30   14   34 1
    31   15   16 ar
    32   15   20 1
    33   16   17 ar
    34   16   35 1
    35   17   18 ar
    36   17   36 1
    37   18   19 1
    38   21   37 1
    39   21   38 1
    40   21   39 1
@<TRIPOS>MOLECULE
ZINC59153101
   27    28     0     0     0
SMALL
USER_CHARGES

@<TRIPOS>ATOM
      1 C1         -0.0169    1.3929    0.0097 C.ar      1 <0>        -0.0799
      2 C2          1.1697    2.0955    0.0021 C.ar      1 <0>        -0.1124
      3 C3          2.3783    1.4194   -0.0130 C.ar      1 <0>        -0.0229
      4 C4          2.4041    0.0348   -0.0212 C.ar      1 <0>        -0.1132
      5 C5          1.2247   -0.6799   -0.0142 C.ar      1 <0>        -0.0714
      6 C6          0.0021   -0.0041    0.0020 C.ar      1 <0>        -0.0457
      7 C7         -1.2628   -0.7618    0.0105 C.2       1 <0>         0.0938
      8 N1         -1.2419   -2.0599    0.0033 N.2       1 <0>        -0.2302
      9 N2         -2.4437   -2.7799    0.0114 N.pl3     1 <0>        -0.5793
     10 C8         -2.4213   -4.1752    0.0037 C.ar      1 <0>         0.2319
     11 C9         -1.2075   -4.8522   -0.0062 C.ar      1 <0>        -0.1554
     12 C10        -1.1889   -6.2328   -0.0133 C.ar      1 <0>        -0.0468
     13 C11        -2.3767   -6.9422   -0.0106 C.ar      1 <0>        -0.1422
     14 C12        -3.5868   -6.2715   -0.0013 C.ar      1 <0>        -0.0424
     15 C13        -3.6126   -4.8910    0.0117 C.ar      1 <0>        -0.1784
     16 I1         -2.3431   -9.0369   -0.0215 I         1 <0>        -0.0476
     17 Cl1         3.8675    2.3116   -0.0225 Cl        1 <0>        -0.0642
     18 H1         -0.9586    1.9213    0.0260 H         1 <0>         0.1384
     19 H2          1.1565    3.1754    0.0077 H         1 <0>         0.1393
     20 H3          3.3499   -0.4864   -0.0334 H         1 <0>         0.1383
     21 H4          1.2462   -1.7597   -0.0213 H         1 <0>         0.1415
     22 H5         -2.2066   -0.2370    0.0227 H         1 <0>         0.1223
     23 H6         -3.2914   -2.3085    0.0224 H         1 <0>         0.3925
     24 H7         -0.2799   -4.2991   -0.0086 H         1 <0>         0.1395
     25 H8         -0.2461   -6.7595   -0.0213 H         1 <0>         0.1313
     26 H9         -4.5122   -6.8283    0.0004 H         1 <0>         0.1323
     27 H10        -4.5575   -4.3680    0.0235 H         1 <0>         0.1310
@<TRIPOS>BOND
     1    1    6 ar
     2    1    2 ar
     3    1   18 1
     4    2    3 ar
     5    2   19 1
     6    3    4 ar
     7    3   17 1
     8    4    5 ar
     9    4   20 1
    10    5    6 ar
    11    5   21 1
    12    6    7 1
    13    7    8 2
    14    7   22 1
    15    8    9 1
    16    9   10 1
    17    9   23 1
    18   10   15 ar
    19   10   11 ar
    20   11   12 ar
    21   11   24 1
    22   12   13 ar
    23   12   25 1
    24   13   14 ar
    25   13   16 1
    26   14   15 ar
    27   14   26 1
    28   15   27 1
@<TRIPOS>MOLECULE
ZINC65002260
   58    61     0     0     0
SMALL
USER_CHARGES

@<TRIPOS>ATOM
      1 C1         -0.0187    1.5258    0.0104 C.3       1 <0>        -0.1408
      2 C2          0.0021   -0.0041    0.0020 C.3       1 <0>        -0.0356
      3 C3          0.7421   -0.5109    1.2415 C.3       1 <0>        -0.1408
      4 C4         -1.4333   -0.5336    0.0129 C.3       1 <0>        -0.1482
      5 C5          0.7074   -0.4901   -1.2379 C.ar      1 <0>        -0.0343
      6 C6          0.0325   -1.2849   -2.1473 C.ar      1 <0>        -0.1267
      7 C7          0.6723   -1.7336   -3.2841 C.ar      1 <0>        -0.0448
      8 C8          2.0038   -1.3836   -3.5161 C.ar      1 <0>        -0.0826
      9 C9          2.6788   -0.5808   -2.5945 C.ar      1 <0>        -0.0845
     10 C10         2.0254   -0.1347   -1.4644 C.ar      1 <0>        -0.1169
     11 C11         2.6957   -1.8609   -4.7313 C.2       1 <0>         0.4567
     12 N1          4.0016   -1.5151   -4.9434 N.am      1 <0>        -0.6359
     13 H1          4.4589   -0.9601   -4.2925 H         1 <0>         0.4185
     14 C12         4.6641   -1.9311   -6.0386 C.2       1 <0>         0.5577
     15 O1          5.8283   -1.6158   -6.2141 O.2       1 <0>        -0.5204
     16 C13         3.9804   -2.7510   -6.9955 C.2       1 <0>        -0.2493
     17 C14         4.4980   -3.3095   -8.2436 C.2       1 <0>        -0.0491
     18 C15         3.6480   -4.0576   -8.9791 C.2       1 <0>        -0.1673
     19 S1          2.1298   -4.0620   -8.0643 S.3       1 <0>         0.1472
     20 C16         2.6418   -3.0557   -6.6945 C.2       1 <0>         0.1088
     21 N2          2.0482   -2.6173   -5.5919 N.2       1 <0>        -0.4830
     22 C17         3.9322   -4.7341  -10.2854 C.3       1 <0>        -0.0357
     23 C18         5.2291   -4.1480  -10.8619 C.3       1 <0>        -0.0701
     24 H2          5.0465   -3.1329  -11.2145 H         1 <0>         0.0772
     25 C19         6.2907   -4.1253   -9.7582 C.3       1 <0>        -0.1206
     26 C20         5.9308   -3.0703   -8.7119 C.3       1 <0>        -0.0586
     27 C21         5.7120   -5.0164  -12.0253 C.3       1 <0>        -0.0621
     28 C22         4.6400   -5.0493  -13.1165 C.3       1 <0>        -0.1457
     29 C23         7.0042   -4.4298  -12.5974 C.3       1 <0>        -0.1451
     30 C24         5.9749   -6.4384  -11.5256 C.3       1 <0>        -0.1486
     31 H3          1.0039    1.9031    0.0027 H         1 <0>         0.0585
     32 H4         -0.5459    1.8868   -0.8726 H         1 <0>         0.0585
     33 H5         -0.5289    1.8773    0.9072 H         1 <0>         0.0627
     34 H6          0.2319   -0.1594    2.1383 H         1 <0>         0.0626
     35 H7          0.7568   -1.6008    1.2356 H         1 <0>         0.0585
     36 H8          1.7647   -0.1336    1.2338 H         1 <0>         0.0585
     37 H9         -1.9605   -0.1726   -0.8702 H         1 <0>         0.0612
     38 H10        -1.4185   -1.6235    0.0069 H         1 <0>         0.0612
     39 H11        -1.9435   -0.1821    0.9097 H         1 <0>         0.0621
     40 H12        -0.9975   -1.5550   -1.9666 H         1 <0>         0.1393
     41 H13         0.1445   -2.3546   -3.9928 H         1 <0>         0.1448
     42 H14         3.7089   -0.3066   -2.7678 H         1 <0>         0.1253
     43 H15         2.5449    0.4899   -0.7529 H         1 <0>         0.1332
     44 H16         4.0529   -5.8055  -10.1255 H         1 <0>         0.0909
     45 H17         3.1094   -4.5561  -10.9777 H         1 <0>         0.0848
     46 H18         6.3394   -5.1048   -9.2825 H         1 <0>         0.0679
     47 H19         7.2610   -3.8871  -10.1940 H         1 <0>         0.0761
     48 H20         6.0097   -2.0769   -9.1535 H         1 <0>         0.0780
     49 H21         6.6105   -3.1499   -7.8635 H         1 <0>         0.0857
     50 H22         4.4527   -4.0362  -13.4725 H         1 <0>         0.0554
     51 H23         4.9840   -5.6679  -13.9453 H         1 <0>         0.0560
     52 H24         3.7195   -5.4671  -12.7089 H         1 <0>         0.0571
     53 H25         7.7679   -4.4064  -11.8201 H         1 <0>         0.0595
     54 H26         7.3482   -5.0485  -13.4263 H         1 <0>         0.0557
     55 H27         6.8169   -3.4168  -12.9535 H         1 <0>         0.0552
     56 H28         5.0544   -6.8562  -11.1180 H         1 <0>         0.0579
     57 H29         6.3189   -7.0570  -12.3545 H         1 <0>         0.0552
     58 H30         6.7386   -6.4149  -10.7483 H         1 <0>         0.0587
@<TRIPOS>BOND
     1    1    2 1
     2    1   31 1
     3    1   32 1
     4    1   33 1
     5    2    3 1
     6    2    4 1
     7    2    5 1
     8    3   34 1
     9    3   35 1
    10    3   36 1
    11    4   37 1
    12    4   38 1
    13    4   39 1
    14    5   10 ar
    15    5    6 ar
    16    6    7 ar
    17    6   40 1
    18    7    8 ar
    19    7   41 1
    20    8    9 ar
    21    8   11 1
    22    9   10 ar
    23    9   42 1
    24   10   43 1
    25   11   21 2
    26   11   12 1
    27   12   13 1
    28   12   14 am
    29   14   15 2
    30   14   16 1
    31   16   20 2
    32   16   17 1
    33   17   26 1
    34   17   18 2
    35   18   19 1
    36   18   22 1
    37   19   20 1
    38   20   21 1
    39   22   23 1
    40   22   44 1
    41   22   45 1
    42   23   24 1
    43   23   25 1
    44   23   27 1
    45   25   26 1
    46   25   46 1
    47   25   47 1
    48   26   48 1
    49   26   49 1
    50   27   28 1
    51   27   29 1
    52   27   30 1
    53   28   50 1
    54   28   51 1
    55   28   52 1
    56   29   53 1
    57   29   54 1
    58   29   55 1
    59   30   56 1
    60   30   57 1
    61   30   58 1
@<TRIPOS>MOLECULE
ZINC05674166
   54    56     0     0     0
SMALL
USER_CHARGES
N-[1-(4-isopropylphenyl)propyl]-5-methyl-4-phenyl-thiophene-3-carboxamide
@<TRIPOS>ATOM
      1 C1          4.6372    0.9973   -2.0402 C.3       1 <0>        -0.1440
      2 C2          4.5647   -0.4245   -1.4799 C.3       1 <0>        -0.1270
      3 C3          4.0554   -0.3790   -0.0378 C.3       1 <0>         0.1913
      4 H1          4.6864    0.2880    0.5495 H         1 <0>         0.0978
      5 C4          4.1000   -1.7639    0.5546 C.ar      1 <0>        -0.0970
      6 C5          3.0954   -2.6700    0.2705 C.ar      1 <0>        -0.1125
      7 C6          3.1389   -3.9419    0.8101 C.ar      1 <0>        -0.1100
      8 C7          4.1815   -4.3044    1.6423 C.ar      1 <0>        -0.0724
      9 C8          5.1834   -3.3966    1.9306 C.ar      1 <0>        -0.1127
     10 C9          5.1426   -2.1264    1.3868 C.ar      1 <0>        -0.1030
     11 C10         4.2257   -5.6890    2.2355 C.3       1 <0>        -0.0593
     12 C11         2.9755   -5.9191    3.0870 C.3       1 <0>        -0.1449
     13 C12         4.2741   -6.7246    1.1103 C.3       1 <0>        -0.1450
     14 N1          2.6761    0.1145   -0.0225 N.am      1 <0>        -0.7218
     15 C13         2.4348    1.4404   -0.0130 C.2       1 <0>         0.5690
     16 O1          3.3624    2.2275   -0.0172 O.2       1 <0>        -0.5085
     17 C14         1.0502    1.9358    0.0024 C.2       1 <0>        -0.1549
     18 C15        -0.0126    1.0758    0.0080 C.2       1 <0>        -0.1809
     19 S1         -1.3873    2.1277    0.0191 S.3       1 <0>         0.1304
     20 C16        -0.5569    3.7034    0.0273 C.2       1 <0>        -0.1467
     21 C17         0.7578    3.3542    0.0128 C.2       1 <0>        -0.0501
     22 C18         1.8352    4.3727    0.0076 C.ar      1 <0>        -0.0170
     23 C19         2.7010    4.4810    1.0948 C.ar      1 <0>        -0.0633
     24 C20         3.7056    5.4271    1.0818 C.ar      1 <0>        -0.1203
     25 C21         3.8473    6.2745   -0.0024 C.ar      1 <0>        -0.1160
     26 C22         2.9875    6.1754   -1.0816 C.ar      1 <0>        -0.1241
     27 C23         1.9828    5.2294   -1.0822 C.ar      1 <0>        -0.1035
     28 C24        -1.1618    5.0836    0.0400 C.3       1 <0>        -0.0713
     29 H2          5.0001    0.9649   -3.0676 H         1 <0>         0.0461
     30 H3          3.6446    1.4471   -2.0196 H         1 <0>         0.0569
     31 H4          5.3187    1.5929   -1.4328 H         1 <0>         0.0608
     32 H5          5.5574   -0.8743   -1.5005 H         1 <0>         0.0721
     33 H6          3.8832   -1.0201   -2.0873 H         1 <0>         0.0630
     34 H7          2.2785   -2.3853   -0.3760 H         1 <0>         0.1176
     35 H8          2.3559   -4.6510    0.5852 H         1 <0>         0.1226
     36 H9          5.9978   -3.6797    2.5810 H         1 <0>         0.1237
     37 H10         5.9252   -1.4171    1.6123 H         1 <0>         0.1244
     38 H11         5.1137   -5.7887    2.8596 H         1 <0>         0.0781
     39 H12         2.0874   -5.8194    2.4629 H         1 <0>         0.0565
     40 H13         3.0074   -6.9206    3.5160 H         1 <0>         0.0594
     41 H14         2.9410   -5.1814    3.8886 H         1 <0>         0.0560
     42 H15         5.1648   -6.5607    0.5037 H         1 <0>         0.0562
     43 H16         4.3061   -7.7261    1.5394 H         1 <0>         0.0594
     44 H17         3.3861   -6.6249    0.4862 H         1 <0>         0.0566
     45 H18         1.9364   -0.5131   -0.0191 H         1 <0>         0.3951
     46 H19         0.0021   -0.0041    0.0020 H         1 <0>         0.1880
     47 H20         2.5883    3.8231    1.9438 H         1 <0>         0.1114
     48 H21         4.3797    5.5090    1.9216 H         1 <0>         0.1182
     49 H22         4.6323    7.0162   -0.0064 H         1 <0>         0.1181
     50 H23         3.1027    6.8399   -1.9251 H         1 <0>         0.1196
     51 H24         1.3124    5.1527   -1.9255 H         1 <0>         0.1158
     52 H25        -1.3176    5.4215   -0.9845 H         1 <0>         0.0814
     53 H26        -2.1178    5.0565    0.5630 H         1 <0>         0.0764
     54 H27        -0.4876    5.7711    0.5508 H         1 <0>         0.0841
@<TRIPOS>BOND
     1    1    2 1
     2    1   29 1
     3    1   30 1
     4    1   31 1
     5    2    3 1
     6    2   32 1
     7    2   33 1
     8    3    4 1
     9    3    5 1
    10    3   14 1
    11    5   10 ar
    12    5    6 ar
    13    6    7 ar
    14    6   34 1
    15    7    8 ar
    16    7   35 1
    17    8    9 ar
    18    8   11 1
    19    9   10 ar
    20    9   36 1
    21   10   37 1
    22   11   12 1
    23   11   13 1
    24   11   38 1
    25   12   39 1
    26   12   40 1
    27   12   41 1
    28   13   42 1
    29   13   43 1
    30   13   44 1
    31   14   15 am
    32   14   45 1
    33   15   16 2
    34   15   17 1
    35   17   21 1
    36   17   18 2
    37   18   19 1
    38   18   46 1
    39   19   20 1
    40   20   21 2
    41   20   28 1
    42   21   22 1
    43   22   27 ar
    44   22   23 ar
    45   23   24 ar
    46   23   47 1
    47   24   25 ar
    48   24   48 1
    49   25   26 ar
    50   25   49 1
    51   26   27 ar
    52   26   50 1
    53   27   51 1
    54   28   52 1
    55   28   53 1
    56   28   54 1
@<TRIPOS>MOLECULE
ZINC14551555
   59    63     0     0     0
SMALL
USER_CHARGES
(3aR,4S,9bS)-8-(2-cyclohexylethoxy)-4-phenyl-3a,4,5,9b-tetrahydro-3H-cyclopenta[c]quinoline
@<TRIPOS>ATOM
      1 C1         -8.6862   11.1090    2.2021 C.ar      1 <0>        -0.1230
      2 C2         -7.5608   10.3403    1.9708 C.ar      1 <0>        -0.1222
      3 C3         -6.5616   10.2735    2.9237 C.ar      1 <0>        -0.1007
      4 C4         -6.6875   10.9757    4.1077 C.ar      1 <0>        -0.0828
      5 C5         -7.8153   11.7403    4.3412 C.ar      1 <0>        -0.1120
      6 C6         -8.8127   11.8102    3.3867 C.ar      1 <0>        -0.1210
      7 C7         -5.5982   10.9029    5.1465 C.3       1 <0>         0.2025
      8 H1         -6.0308   11.0312    6.1387 H         1 <0>         0.0948
      9 C8         -4.5676   12.0057    4.8872 C.3       1 <0>        -0.0961
     10 H2         -3.8396   12.0979    5.6932 H         1 <0>         0.0986
     11 C9         -5.3573   13.3221    4.6261 C.3       1 <0>        -0.0963
     12 C10        -5.7401   13.2172    3.1626 C.2       1 <0>        -0.1566
     13 C11        -4.9447   12.3828    2.5385 C.2       1 <0>        -0.1501
     14 C12        -3.9279   11.8126    3.4985 C.3       1 <0>        -0.0112
     15 H3         -3.0055   12.3903    3.4384 H         1 <0>         0.0908
     16 C13        -3.6254   10.3808    3.1886 C.ar      1 <0>        -0.0951
     17 C14        -2.8203   10.0915    2.0948 C.ar      1 <0>        -0.1112
     18 C15        -2.5194    8.7797    1.7719 C.ar      1 <0>         0.0851
     19 C16        -3.0127    7.7394    2.5458 C.ar      1 <0>        -0.1661
     20 C17        -3.8104    8.0195    3.6371 C.ar      1 <0>        -0.1495
     21 C18        -4.1158    9.3363    3.9564 C.ar      1 <0>         0.1841
     22 N1         -4.9298    9.6000    5.0668 N.pl3     1 <0>        -0.7490
     23 O1         -1.7330    8.5099    0.6956 O.3       1 <0>        -0.3190
     24 C19        -1.4569    7.1348    0.4222 C.3       1 <0>         0.0610
     25 C20        -0.5642    7.0301   -0.8159 C.3       1 <0>        -0.1144
     26 C21        -0.2686    5.5578   -1.1086 C.3       1 <0>        -0.0832
     27 C22         0.5190    5.4457   -2.4155 C.3       1 <0>        -0.1135
     28 C23         0.8146    3.9733   -2.7082 C.3       1 <0>        -0.1203
     29 C24         1.6393    3.3814   -1.5635 C.3       1 <0>        -0.1213
     30 C25         0.8517    3.4935   -0.2565 C.3       1 <0>        -0.1205
     31 C26         0.5561    4.9659    0.0361 C.3       1 <0>        -0.1190
     32 H4         -9.4667   11.1615    1.4575 H         1 <0>         0.1161
     33 H5         -7.4620    9.7922    1.0455 H         1 <0>         0.1148
     34 H6         -5.6823    9.6729    2.7430 H         1 <0>         0.1314
     35 H7         -7.9157   12.2854    5.2681 H         1 <0>         0.1175
     36 H8         -9.6921   12.4105    3.5676 H         1 <0>         0.1178
     37 H9         -6.2473   13.3671    5.2537 H         1 <0>         0.0744
     38 H10        -4.7228   14.1915    4.7985 H         1 <0>         0.0778
     39 H11        -6.5542   13.7547    2.6993 H         1 <0>         0.1225
     40 H12        -5.0071   12.1387    1.4883 H         1 <0>         0.1225
     41 H13        -2.4289   10.8958    1.4896 H         1 <0>         0.1278
     42 H14        -2.7743    6.7162    2.2957 H         1 <0>         0.1263
     43 H15        -4.1972    7.2138    4.2435 H         1 <0>         0.1236
     44 H16        -5.0477    8.9373    5.7652 H         1 <0>         0.4035
     45 H17        -2.3924    6.6053    0.2415 H         1 <0>         0.0580
     46 H18        -0.9468    6.6898    1.2766 H         1 <0>         0.0614
     47 H19         0.3712    7.5596   -0.6352 H         1 <0>         0.0738
     48 H20        -1.0744    7.4751   -1.6703 H         1 <0>         0.0737
     49 H21        -1.2066    5.0103   -1.2015 H         1 <0>         0.0724
     50 H22         1.4569    5.9931   -2.3226 H         1 <0>         0.0639
     51 H23        -0.0686    5.8674   -3.2311 H         1 <0>         0.0633
     52 H24         1.3756    3.8935   -3.6393 H         1 <0>         0.0623
     53 H25        -0.1234    3.4259   -2.8011 H         1 <0>         0.0614
     54 H26         1.8499    2.3325   -1.7719 H         1 <0>         0.0607
     55 H27         2.5773    3.9289   -1.4705 H         1 <0>         0.0615
     56 H28        -0.0862    2.9461   -0.3494 H         1 <0>         0.0612
     57 H29         1.4393    3.0718    0.5590 H         1 <0>         0.0616
     58 H30         1.4941    5.5133    0.1291 H         1 <0>         0.0644
     59 H31        -0.0049    5.0457    0.9672 H         1 <0>         0.0618
@<TRIPOS>BOND
     1    1    6 ar
     2    1    2 ar
     3    1   32 1
     4    2    3 ar
     5    2   33 1
     6    3    4 ar
     7    3   34 1
     8    4    5 ar
     9    4    7 1
    10    5    6 ar
    11    5   35 1
    12    6   36 1
    13    7    8 1
    14    7   22 1
    15    7    9 1
    16    9   10 1
    17    9   14 1
    18    9   11 1
    19   11   12 1
    20   11   37 1
    21   11   38 1
    22   12   13 2
    23   12   39 1
    24   13   14 1
    25   13   40 1
    26   14   15 1
    27   14   16 1
    28   16   21 ar
    29   16   17 ar
    30   17   18 ar
    31   17   41 1
    32   18   19 ar
    33   18   23 1
    34   19   20 ar
    35   19   42 1
    36   20   21 ar
    37   20   43 1
    38   21   22 1
    39   22   44 1
    40   23   24 1
    41   24   25 1
    42   24   45 1
    43   24   46 1
    44   25   26 1
    45   25   47 1
    46   25   48 1
    47   26   31 1
    48   26   27 1
    49   26   49 1
    50   27   28 1
    51   27   50 1
    52   27   51 1
    53   28   29 1
    54   28   52 1
    55   28   53 1
    56   29   30 1
    57   29   54 1
    58   29   55 1
    59   30   31 1
    60   30   56 1
    61   30   57 1
    62   31   58 1
    63   31   59 1
@<TRIPOS>MOLECULE
ZINC37129324
   41    42     0     0     0
SMALL
USER_CHARGES

@<TRIPOS>ATOM
      1 C1         -0.0187    1.5258    0.0104 C.3       1 <0>        -0.1587
      2 C2          0.0021   -0.0041    0.0020 C.3       1 <0>        -0.1331
      3 C3          0.7182   -0.4975   -1.2568 C.3       1 <0>         0.1896
      4 H1          1.7103   -0.0491   -1.3098 H         1 <0>         0.0905
      5 C4          0.8473   -1.9981   -1.2057 C.ar      1 <0>        -0.0752
      6 C5         -0.2270   -2.7962   -1.5522 C.ar      1 <0>        -0.1057
      7 C6         -0.1089   -4.1726   -1.5060 C.ar      1 <0>        -0.0856
      8 C7          1.0844   -4.7513   -1.1129 C.ar      1 <0>        -0.0893
      9 C8          2.1590   -3.9523   -0.7663 C.ar      1 <0>        -0.0855
     10 C9          2.0417   -2.5761   -0.8179 C.ar      1 <0>        -0.1018
     11 Br1         1.2463   -6.6343   -1.0488 Br        1 <0>        -0.0464
     12 N1         -0.0549   -0.1139   -2.4405 N.pl3     1 <0>        -0.7295
     13 C10         0.1133    1.1563   -3.0052 C.ar      1 <0>         0.2241
     14 C11         1.0154    2.0504   -2.4489 C.ar      1 <0>        -0.1889
     15 C12         1.1804    3.3048   -3.0089 C.ar      1 <0>         0.0077
     16 C13         0.4471    3.6704   -4.1237 C.ar      1 <0>        -0.1620
     17 C14        -0.4544    2.7843   -4.6841 C.ar      1 <0>        -0.0685
     18 C15        -0.6217    1.5234   -4.1321 C.ar      1 <0>         0.0951
     19 N2         -1.5304    0.6223   -4.7020 N.pl3     1 <0>        -0.6793
     20 C16        -1.0863   -0.3029   -5.7475 C.3       1 <0>         0.1159
     21 C17        -2.9246    0.6052   -4.2526 C.3       1 <0>         0.1157
     22 Cl1         2.3099    4.4230   -2.3106 Cl        1 <0>        -0.0720
     23 H2          1.0039    1.9031    0.0027 H         1 <0>         0.0586
     24 H3         -0.5459    1.8868   -0.8726 H         1 <0>         0.0659
     25 H4         -0.5289    1.8773    0.9072 H         1 <0>         0.0547
     26 H5          0.5293   -0.3651    0.8851 H         1 <0>         0.0729
     27 H6         -1.0205   -0.3814    0.0098 H         1 <0>         0.0677
     28 H7         -1.1587   -2.3442   -1.8588 H         1 <0>         0.1277
     29 H8         -0.9483   -4.7960   -1.7764 H         1 <0>         0.1345
     30 H9          3.0909   -4.4038   -0.4593 H         1 <0>         0.1361
     31 H10         2.8819   -1.9522   -0.5512 H         1 <0>         0.1347
     32 H11        -0.6834   -0.7398   -2.8331 H         1 <0>         0.4037
     33 H12         1.5889    1.7679   -1.5785 H         1 <0>         0.1396
     34 H13         0.5789    4.6508   -4.5573 H         1 <0>         0.1296
     35 H14        -1.0253    3.0728   -5.5543 H         1 <0>         0.1295
     36 H15        -0.7364   -1.2280   -5.2894 H         1 <0>         0.0307
     37 H16        -1.9184   -0.5211   -6.4169 H         1 <0>         0.0577
     38 H17        -0.2738    0.1519   -6.3141 H         1 <0>         0.0555
     39 H18        -3.0654    1.3573   -3.4763 H         1 <0>         0.0620
     40 H19        -3.5806    0.8251   -5.0949 H         1 <0>         0.0433
     41 H20        -3.1652   -0.3797   -3.8522 H         1 <0>         0.0384
@<TRIPOS>BOND
     1    1    2 1
     2    1   23 1
     3    1   24 1
     4    1   25 1
     5    2    3 1
     6    2   26 1
     7    2   27 1
     8    3    4 1
     9    3    5 1
    10    3   12 1
    11    5   10 ar
    12    5    6 ar
    13    6    7 ar
    14    6   28 1
    15    7    8 ar
    16    7   29 1
    17    8    9 ar
    18    8   11 1
    19    9   10 ar
    20    9   30 1
    21   10   31 1
    22   12   13 1
    23   12   32 1
    24   13   18 ar
    25   13   14 ar
    26   14   15 ar
    27   14   33 1
    28   15   16 ar
    29   15   22 1
    30   16   17 ar
    31   16   34 1
    32   17   18 ar
    33   17   35 1
    34   18   19 1
    35   19   20 1
    36   19   21 1
    37   20   36 1
    38   20   37 1
    39   20   38 1
    40   21   39 1
    41   21   40 1
    42   21   41 1
@<TRIPOS>MOLECULE
ZINC41018733
   51    54     0     0     0
SMALL
USER_CHARGES

@<TRIPOS>ATOM
      1 C1         -0.0184    1.5028    0.0103 C.3       1 <0>        -0.1177
      2 C2          0.0021   -0.0041    0.0020 C.ar      1 <0>        -0.0863
      3 C3          0.0057   -0.6887   -1.1989 C.ar      1 <0>        -0.1190
      4 C4          0.0245   -2.0709   -1.2065 C.ar      1 <0>        -0.1103
      5 C5          0.0400   -2.7685   -0.0132 C.ar      1 <0>        -0.0938
      6 C6          0.0373   -2.0839    1.1877 C.ar      1 <0>        -0.1103
      7 C7          0.0229   -0.7016    1.1953 C.ar      1 <0>        -0.1190
      8 C8          0.0595   -4.2753   -0.0215 C.3       1 <0>        -0.0654
      9 C9          1.5084   -4.7666   -0.0322 C.3       1 <0>        -0.1261
     10 C10         1.5278   -6.2735   -0.0405 C.2       1 <0>         0.5149
     11 O1          0.4854   -6.8934   -0.0381 O.2       1 <0>        -0.4944
     12 N1          2.7036   -6.9322   -0.0506 N.am      1 <0>        -0.6112
     13 C11         2.7215   -8.3216   -0.0582 C.2       1 <0>         0.3148
     14 N2          3.7543   -9.1434   -0.0630 N.2       1 <0>        -0.5317
     15 C12         3.5876  -10.4575   -0.0695 C.2       1 <0>         0.1205
     16 C13         2.3213  -10.9729   -0.0713 C.2       1 <0>        -0.2408
     17 S1          1.3521   -9.4703   -0.0563 S.3       1 <0>         0.1172
     18 C14         4.7636  -11.3612   -0.0752 C.ar      1 <0>        -0.0282
     19 C15         4.5866  -12.7440   -0.0883 C.ar      1 <0>        -0.1044
     20 C16         5.6872  -13.5712   -0.0906 C.ar      1 <0>        -0.1207
     21 C17         6.9732  -13.0427   -0.0815 C.ar      1 <0>        -0.0695
     22 C18         7.1539  -11.6767   -0.0736 C.ar      1 <0>        -0.0795
     23 C19         6.0512  -10.8355   -0.0734 C.ar      1 <0>        -0.0854
     24 C20         8.5191  -11.0395   -0.0798 C.3       1 <0>        -0.0806
     25 C21         9.5851  -12.0481    0.3430 C.3       1 <0>        -0.1205
     26 C22         9.4163  -13.3144   -0.5048 C.3       1 <0>        -0.1209
     27 C23         8.1268  -14.0120   -0.0768 C.3       1 <0>        -0.0827
     28 H1          1.0042    1.8801    0.0026 H         1 <0>         0.0712
     29 H2         -0.5455    1.8639   -0.8728 H         1 <0>         0.0668
     30 H3         -0.5286    1.8543    0.9071 H         1 <0>         0.0668
     31 H4         -0.0064   -0.1436   -2.1312 H         1 <0>         0.1223
     32 H5          0.0266   -2.6057   -2.1448 H         1 <0>         0.1226
     33 H6          0.0491   -2.6289    2.1200 H         1 <0>         0.1225
     34 H7          0.0245   -0.1667    2.1335 H         1 <0>         0.1223
     35 H8         -0.4447   -4.6501    0.8693 H         1 <0>         0.0839
     36 H9         -0.4546   -4.6404   -0.9106 H         1 <0>         0.0839
     37 H10         2.0126   -4.3918   -0.9230 H         1 <0>         0.1070
     38 H11         2.0224   -4.4015    0.8569 H         1 <0>         0.1069
     39 H12         3.5373   -6.4364   -0.0525 H         1 <0>         0.4278
     40 H13         1.9963  -12.0028   -0.0765 H         1 <0>         0.1987
     41 H14         3.5917  -13.1640   -0.0963 H         1 <0>         0.1246
     42 H15         5.5501  -14.6425   -0.0993 H         1 <0>         0.1245
     43 H16         6.1933   -9.7649   -0.0668 H         1 <0>         0.1299
     44 H17         8.7431  -10.6796   -1.0840 H         1 <0>         0.0757
     45 H18         8.5260  -10.1979    0.6128 H         1 <0>         0.0741
     46 H19        10.5762  -11.6255    0.1781 H         1 <0>         0.0682
     47 H20         9.4608  -12.2932    1.3977 H         1 <0>         0.0656
     48 H21         9.3554  -13.0450   -1.5592 H         1 <0>         0.0657
     49 H22        10.2645  -13.9798   -0.3438 H         1 <0>         0.0683
     50 H23         8.2530  -14.4157    0.9277 H         1 <0>         0.0768
     51 H24         7.9135  -14.8280   -0.7673 H         1 <0>         0.0750
@<TRIPOS>BOND
     1    1    2 1
     2    1   28 1
     3    1   29 1
     4    1   30 1
     5    2    7 ar
     6    2    3 ar
     7    3    4 ar
     8    3   31 1
     9    4    5 ar
    10    4   32 1
    11    5    6 ar
    12    5    8 1
    13    6    7 ar
    14    6   33 1
    15    7   34 1
    16    8    9 1
    17    8   35 1
    18    8   36 1
    19    9   10 1
    20    9   37 1
    21    9   38 1
    22   10   11 2
    23   10   12 am
    24   12   13 1
    25   12   39 1
    26   13   17 1
    27   13   14 2
    28   14   15 1
    29   15   16 2
    30   15   18 1
    31   16   17 1
    32   16   40 1
    33   18   23 ar
    34   18   19 ar
    35   19   20 ar
    36   19   41 1
    37   20   21 ar
    38   20   42 1
    39   21   27 1
    40   21   22 ar
    41   22   23 ar
    42   22   24 1
    43   23   43 1
    44   24   25 1
    45   24   44 1
    46   24   45 1
    47   25   26 1
    48   25   46 1
    49   25   47 1
    50   26   27 1
    51   26   48 1
    52   26   49 1
    53   27   50 1
    54   27   51 1
@<TRIPOS>MOLECULE
ZINC62048910
   51    54     0     0     0
SMALL
USER_CHARGES

@<TRIPOS>ATOM
      1 C1          0.0273    1.5387    0.6811 C.3       1 <0>        -0.0706
      2 C2          0.0460    0.0733    0.3298 C.2       1 <0>        -0.1263
      3 C3         -1.0032   -0.7346    0.0493 C.2       1 <0>        -0.0547
      4 C4         -0.7455   -2.1354   -0.2675 C.ar      1 <0>        -0.2468
      5 C5         -1.6588   -3.1739   -0.5929 C.ar      1 <0>         0.4928
      6 N1         -1.1941   -4.3865   -0.8477 N.ar      1 <0>        -0.5837
      7 C6          0.0963   -4.6666   -0.8098 C.ar      1 <0>         0.3872
      8 N2          0.9913   -3.7445   -0.5135 N.ar      1 <0>        -0.5237
      9 C7          0.6138   -2.5090   -0.2465 C.ar      1 <0>         0.1546
     10 S1          1.4556   -1.0070    0.1769 S.3       1 <0>         0.1165
     11 C8          0.5554   -6.0700   -1.1111 C.3       1 <0>        -0.0840
     12 N3         -3.0180   -2.9206   -0.6425 N.pl3     1 <0>        -0.7033
     13 C9         -3.9607   -4.0208   -0.8593 C.3       1 <0>         0.1303
     14 C10        -5.3894   -3.4733   -0.8712 C.3       1 <0>        -0.1001
     15 C11        -6.3591   -4.6051   -1.0943 C.2       1 <0>        -0.1190
     16 C12        -6.9007   -5.1541   -0.0547 C.2       1 <0>        -0.1455
     17 C13        -7.8739   -6.2947   -0.1171 C.3       1 <0>        -0.0912
     18 C14        -8.4459   -6.4227   -1.5307 C.3       1 <0>        -0.1219
     19 C15        -7.2807   -6.4134   -2.5282 C.3       1 <0>        -0.1202
     20 C16        -6.6415   -5.0214   -2.5081 C.3       1 <0>        -0.0836
     21 C17        -2.3881   -0.2062    0.0641 C.ar      1 <0>        -0.0545
     22 C18        -2.8329    0.6186   -0.9683 C.ar      1 <0>        -0.0729
     23 C19        -4.1228    1.1080   -0.9501 C.ar      1 <0>        -0.1492
     24 C20        -4.9754    0.7814    0.0920 C.ar      1 <0>         0.1069
     25 C21        -4.5377   -0.0374    1.1203 C.ar      1 <0>        -0.1511
     26 C22        -3.2517   -0.5371    1.1075 C.ar      1 <0>        -0.0799
     27 F1         -6.2374    1.2634    0.1058 F         1 <0>        -0.1342
     28 H1          1.0476    1.8865    0.8429 H         1 <0>         0.0787
     29 H2         -0.4235    2.1024   -0.1356 H         1 <0>         0.0838
     30 H3         -0.5556    1.6870    1.5902 H         1 <0>         0.0841
     31 H4          0.7475   -6.1679   -2.1795 H         1 <0>         0.0907
     32 H5          1.4701   -6.2799   -0.5567 H         1 <0>         0.0902
     33 H6         -0.2194   -6.7772   -0.8149 H         1 <0>         0.0892
     34 H7         -3.3467   -2.0145   -0.5337 H         1 <0>         0.4116
     35 H8         -3.7470   -4.4993   -1.8151 H         1 <0>         0.0732
     36 H9         -3.8580   -4.7508   -0.0565 H         1 <0>         0.0708
     37 H10        -5.6031   -2.9948    0.0845 H         1 <0>         0.0724
     38 H11        -5.4921   -2.7433   -1.6741 H         1 <0>         0.0731
     39 H12        -6.6353   -4.7675    0.9182 H         1 <0>         0.1022
     40 H13        -7.3641   -7.2199    0.1515 H         1 <0>         0.0743
     41 H14        -8.6867   -6.1151    0.5866 H         1 <0>         0.0713
     42 H15        -8.9968   -7.3590   -1.6196 H         1 <0>         0.0654
     43 H16        -9.1097   -5.5826   -1.7348 H         1 <0>         0.0639
     44 H17        -6.5442   -7.1628   -2.2383 H         1 <0>         0.0657
     45 H18        -7.6536   -6.6298   -3.5293 H         1 <0>         0.0659
     46 H19        -7.3190   -4.3021   -2.9682 H         1 <0>         0.0732
     47 H20        -5.7082   -5.0465   -3.0706 H         1 <0>         0.0710
     48 H21        -2.1688    0.8743   -1.7806 H         1 <0>         0.1377
     49 H22        -4.4683    1.7470   -1.7493 H         1 <0>         0.1424
     50 H23        -5.2057   -0.2887    1.9309 H         1 <0>         0.1417
     51 H24        -2.9130   -1.1795    1.9068 H         1 <0>         0.1354
@<TRIPOS>BOND
     1    1    2 1
     2    1   28 1
     3    1   29 1
     4    1   30 1
     5    2   10 1
     6    2    3 2
     7    3    4 1
     8    3   21 1
     9    4    9 ar
    10    4    5 ar
    11    5    6 ar
    12    5   12 1
    13    6    7 ar
    14    7    8 ar
    15    7   11 1
    16    8    9 ar
    17    9   10 1
    18   11   31 1
    19   11   32 1
    20   11   33 1
    21   12   13 1
    22   12   34 1
    23   13   14 1
    24   13   35 1
    25   13   36 1
    26   14   15 1
    27   14   37 1
    28   14   38 1
    29   15   20 1
    30   15   16 2
    31   16   17 1
    32   16   39 1
    33   17   18 1
    34   17   40 1
    35   17   41 1
    36   18   19 1
    37   18   42 1
    38   18   43 1
    39   19   20 1
    40   19   44 1
    41   19   45 1
    42   20   46 1
    43   20   47 1
    44   21   26 ar
    45   21   22 ar
    46   22   23 ar
    47   22   48 1
    48   23   24 ar
    49   23   49 1
    50   24   25 ar
    51   24   27 1
    52   25   26 ar
    53   25   50 1
    54   26   51 1
@<TRIPOS>MOLECULE
ZINC09636141
   49    52     0     0     0
SMALL
USER_CHARGES
N-[4-(4-benzylphenyl)thiazol-2-yl]-4-methylsulfanyl-benzamide
@<TRIPOS>ATOM
      1 C1         10.0379    6.2313  -11.8931 C.3       1 <0>        -0.1504
      2 S1          9.6499    4.8041  -12.9435 S.3       1 <0>        -0.0948
      3 C2          8.6660    3.7697  -11.9107 C.ar      1 <0>        -0.0504
      4 C3          8.1798    2.5594  -12.4000 C.ar      1 <0>        -0.1084
      5 C4          7.4145    1.7523  -11.5987 C.ar      1 <0>        -0.0266
      6 C5          7.1220    2.1451  -10.2886 C.ar      1 <0>        -0.1480
      7 C6          7.6068    3.3633   -9.8020 C.ar      1 <0>        -0.0577
      8 C7          8.3764    4.1635  -10.6062 C.ar      1 <0>        -0.1429
      9 C8          6.2993    1.2793   -9.4243 C.2       1 <0>         0.5664
     10 O1          5.8742    0.2225   -9.8502 O.2       1 <0>        -0.4926
     11 N1          6.0183    1.6590   -8.1620 N.am      1 <0>        -0.6066
     12 C9          5.2434    0.8437   -7.3480 C.2       1 <0>         0.3157
     13 N2          4.8563    1.0347   -6.1005 N.2       1 <0>        -0.5308
     14 C10         4.1138    0.1396   -5.4661 C.2       1 <0>         0.1190
     15 C11         3.7321   -0.9992   -6.1192 C.2       1 <0>        -0.2397
     16 S2          4.5001   -0.7403   -7.7131 S.3       1 <0>         0.1230
     17 C12         3.6954    0.3736   -4.0626 C.ar      1 <0>        -0.0275
     18 C13         4.0867    1.5361   -3.4005 C.ar      1 <0>        -0.0828
     19 C14         3.6948    1.7483   -2.0944 C.ar      1 <0>        -0.1168
     20 C15         2.9150    0.8100   -1.4424 C.ar      1 <0>        -0.0693
     21 C16         2.5283   -0.3481   -2.0927 C.ar      1 <0>        -0.1139
     22 C17         2.9096   -0.5683   -3.4006 C.ar      1 <0>        -0.0997
     23 C18         2.4902    1.0476   -0.0161 C.3       1 <0>        -0.0442
     24 C19         1.1750    1.7832    0.0004 C.ar      1 <0>        -0.0765
     25 C20        -0.0126    1.0758    0.0080 C.ar      1 <0>        -0.1145
     26 C21        -1.2190    1.7507    0.0173 C.ar      1 <0>        -0.1180
     27 C22        -1.2377    3.1328    0.0303 C.ar      1 <0>        -0.1239
     28 C23        -0.0501    3.8402    0.0223 C.ar      1 <0>        -0.1181
     29 C24         1.1563    3.1654    0.0076 C.ar      1 <0>        -0.1145
     30 H1         10.5822    5.8955  -11.0105 H         1 <0>         0.0878
     31 H2         10.6522    6.9373  -12.4520 H         1 <0>         0.1142
     32 H3          9.1126    6.7186  -11.5859 H         1 <0>         0.0878
     33 H4          8.4057    2.2569  -13.4119 H         1 <0>         0.1412
     34 H5          7.0381    0.8140  -11.9785 H         1 <0>         0.1473
     35 H6          7.3786    3.6714   -8.7924 H         1 <0>         0.1313
     36 H7          8.7547    5.1023  -10.2296 H         1 <0>         0.1342
     37 H8          6.3573    2.5019   -7.8223 H         1 <0>         0.4253
     38 H9          3.1325   -1.8264   -5.7691 H         1 <0>         0.1994
     39 H10         4.6952    2.2694   -3.9087 H         1 <0>         0.1310
     40 H11         3.9977    2.6484   -1.5803 H         1 <0>         0.1229
     41 H12         1.9232   -1.0792   -1.5773 H         1 <0>         0.1248
     42 H13         2.6034   -1.4707   -3.9088 H         1 <0>         0.1253
     43 H14         3.2466    1.6441    0.4937 H         1 <0>         0.0833
     44 H15         2.3777    0.0907    0.4936 H         1 <0>         0.0836
     45 H16         0.0021   -0.0041    0.0020 H         1 <0>         0.1208
     46 H17        -2.1469    1.1980    0.0188 H         1 <0>         0.1217
     47 H18        -2.1802    3.6600    0.0422 H         1 <0>         0.1208
     48 H19        -0.0647    4.9201    0.0280 H         1 <0>         0.1214
     49 H20         2.0841    3.7181    0.0014 H         1 <0>         0.1204
@<TRIPOS>BOND
     1    1    2 1
     2    1   30 1
     3    1   31 1
     4    1   32 1
     5    2    3 1
     6    3    8 ar
     7    3    4 ar
     8    4    5 ar
     9    4   33 1
    10    5    6 ar
    11    5   34 1
    12    6    7 ar
    13    6    9 1
    14    7    8 ar
    15    7   35 1
    16    8   36 1
    17    9   10 2
    18    9   11 am
    19   11   12 1
    20   11   37 1
    21   12   16 1
    22   12   13 2
    23   13   14 1
    24   14   15 2
    25   14   17 1
    26   15   16 1
    27   15   38 1
    28   17   22 ar
    29   17   18 ar
    30   18   19 ar
    31   18   39 1
    32   19   20 ar
    33   19   40 1
    34   20   21 ar
    35   20   23 1
    36   21   22 ar
    37   21   41 1
    38   22   42 1
    39   23   24 1
    40   23   43 1
    41   23   44 1
    42   24   29 ar
    43   24   25 ar
    44   25   26 ar
    45   25   45 1
    46   26   27 ar
    47   26   46 1
    48   27   28 ar
    49   27   47 1
    50   28   29 ar
    51   28   48 1
    52   29   49 1
@<TRIPOS>MOLECULE
ZINC14465388
   54    58     0     0     0
SMALL
USER_CHARGES
(3aS,4R,9bS)-4-(4-chlorophenyl)-8-(2-phenoxyethoxy)-3a,4,5,9b-tetrahydro-3H-cyclopenta[c]quinoline
@<TRIPOS>ATOM
      1 C1          2.2033  -10.8266    0.7868 C.ar      1 <0>        -0.1592
      2 C2          2.4823   -9.9624    1.8294 C.ar      1 <0>        -0.0799
      3 C3          2.0383   -8.6551    1.7821 C.ar      1 <0>        -0.1519
      4 C4          1.3118   -8.2096    0.6873 C.ar      1 <0>         0.1297
      5 C5          1.0283   -9.0803   -0.3549 C.ar      1 <0>        -0.2115
      6 C6          1.4799  -10.3850   -0.3056 C.ar      1 <0>        -0.0801
      7 O1          0.8740   -6.9240    0.6385 O.3       1 <0>        -0.3071
      8 C7          0.1320   -6.5349   -0.5192 C.3       1 <0>         0.0613
      9 C8         -0.2728   -5.0647   -0.3952 C.3       1 <0>         0.0637
     10 O2          0.8983   -4.2458   -0.4038 O.3       1 <0>        -0.3098
     11 C9          0.7131   -2.9024   -0.3007 C.ar      1 <0>         0.0818
     12 C10        -0.5690   -2.3836   -0.1935 C.ar      1 <0>        -0.1651
     13 C11        -0.7580   -1.0206   -0.0954 C.ar      1 <0>        -0.1522
     14 C12         0.3308   -0.1575   -0.1018 C.ar      1 <0>         0.1808
     15 C13         1.6224   -0.6864   -0.1968 C.ar      1 <0>        -0.0945
     16 C14         1.8055   -2.0482   -0.3021 C.ar      1 <0>        -0.0983
     17 C15         2.7544    0.2652   -0.1575 C.3       1 <0>        -0.0399
     18 H1          2.9492    0.5182    0.8847 H         1 <0>         0.0979
     19 C16         4.0619   -0.0458   -0.7906 C.2       1 <0>        -0.1481
     20 C17         4.6101    1.0878   -1.2108 C.2       1 <0>        -0.1683
     21 C18         3.6756    2.2623   -0.9140 C.3       1 <0>        -0.0924
     22 C19         2.3073    1.5685   -0.8851 C.3       1 <0>        -0.1004
     23 H2          1.9398    1.3667   -1.8912 H         1 <0>         0.0986
     24 C20         1.2384    2.1812    0.0019 C.3       1 <0>         0.2072
     25 H3          0.9229    3.1445   -0.3990 H         1 <0>         0.1025
     26 N1          0.1096    1.2254   -0.0169 N.pl3     1 <0>        -0.7463
     27 C21         1.7586    2.3450    1.4068 C.ar      1 <0>        -0.0954
     28 C22         1.5910    1.3284    2.3285 C.ar      1 <0>        -0.0888
     29 C23         2.0729    1.4758    3.6155 C.ar      1 <0>        -0.1114
     30 C24         2.7130    2.6456    3.9845 C.ar      1 <0>        -0.0323
     31 C25         2.8754    3.6649    3.0632 C.ar      1 <0>        -0.1098
     32 C26         2.3981    3.5141    1.7749 C.ar      1 <0>        -0.0997
     33 Cl1         3.3118    2.8345    5.6030 Cl        1 <0>        -0.0689
     34 H4          2.5513  -11.8483    0.8256 H         1 <0>         0.1241
     35 H5          3.0476  -10.3097    2.6815 H         1 <0>         0.1297
     36 H6          2.2568   -7.9803    2.5966 H         1 <0>         0.1306
     37 H7          0.4591   -8.7372   -1.2061 H         1 <0>         0.1266
     38 H8          1.2638  -11.0617   -1.1191 H         1 <0>         0.1249
     39 H9         -0.7624   -7.1524   -0.6020 H         1 <0>         0.0843
     40 H10         0.7490   -6.6682   -1.4079 H         1 <0>         0.0749
     41 H11        -0.8143   -4.9145    0.5388 H         1 <0>         0.0729
     42 H12        -0.9130   -4.7921   -1.2342 H         1 <0>         0.0833
     43 H13        -1.4206   -3.0479   -0.1865 H         1 <0>         0.1258
     44 H14        -1.7583   -0.6220   -0.0128 H         1 <0>         0.1230
     45 H15         2.8037   -2.4518   -0.3860 H         1 <0>         0.1292
     46 H16         4.4942   -1.0303   -0.8923 H         1 <0>         0.1303
     47 H17         5.5739    1.1691   -1.6911 H         1 <0>         0.1295
     48 H18         3.7194    3.0068   -1.7089 H         1 <0>         0.0746
     49 H19         3.9067    2.7107    0.0523 H         1 <0>         0.0850
     50 H20        -0.7996    1.5607    0.0262 H         1 <0>         0.4017
     51 H21         1.0874    0.4171    2.0416 H         1 <0>         0.1355
     52 H22         1.9459    0.6798    4.3343 H         1 <0>         0.1328
     53 H23         3.3753    4.5780    3.3505 H         1 <0>         0.1349
     54 H24         2.5245    4.3098    1.0557 H         1 <0>         0.1341
@<TRIPOS>BOND
     1    1    6 ar
     2    1    2 ar
     3    1   34 1
     4    2    3 ar
     5    2   35 1
     6    3    4 ar
     7    3   36 1
     8    4    5 ar
     9    4    7 1
    10    5    6 ar
    11    5   37 1
    12    6   38 1
    13    7    8 1
    14    8    9 1
    15    8   39 1
    16    8   40 1
    17    9   10 1
    18    9   41 1
    19    9   42 1
    20   10   11 1
    21   11   16 ar
    22   11   12 ar
    23   12   13 ar
    24   12   43 1
    25   13   14 ar
    26   13   44 1
    27   14   26 1
    28   14   15 ar
    29   15   16 ar
    30   15   17 1
    31   16   45 1
    32   17   18 1
    33   17   22 1
    34   17   19 1
    35   19   20 2
    36   19   46 1
    37   20   21 1
    38   20   47 1
    39   21   22 1
    40   21   48 1
    41   21   49 1
    42   22   23 1
    43   22   24 1
    44   24   25 1
    45   24   26 1
    46   24   27 1
    47   26   50 1
    48   27   32 ar
    49   27   28 ar
    50   28   29 ar
    51   28   51 1
    52   29   30 ar
    53   29   52 1
    54   30   31 ar
    55   30   33 1
    56   31   32 ar
    57   31   53 1
    58   32   54 1
@<TRIPOS>MOLECULE
ZINC20699783
   54    58     0     0     0
SMALL
USER_CHARGES
(3aR,4S,9bS)-4-(4-chlorophenyl)-8-(2-phenoxyethoxy)-3a,4,5,9b-tetrahydro-3H-cyclopenta[c]quinoline
@<TRIPOS>ATOM
      1 C1         -4.9199    8.3556   -2.0265 C.ar      1 <0>        -0.1593
      2 C2         -3.9949    7.9962   -2.9893 C.ar      1 <0>        -0.0799
      3 C3         -3.2087    6.8747   -2.8089 C.ar      1 <0>        -0.1520
      4 C4         -3.3479    6.1088   -1.6606 C.ar      1 <0>         0.1298
      5 C5         -4.2807    6.4683   -0.6987 C.ar      1 <0>        -0.2114
      6 C6         -5.0602    7.5942   -0.8809 C.ar      1 <0>        -0.0801
      7 O1         -2.5756    5.0051   -1.4808 O.3       1 <0>        -0.3069
      8 C7         -2.7732    4.2644   -0.2748 C.3       1 <0>         0.0592
      9 C8         -1.8221    3.0662   -0.2505 C.3       1 <0>         0.0618
     10 O2         -0.4720    3.5309   -0.1919 O.3       1 <0>        -0.3105
     11 C9          0.5056    2.5858   -0.1638 C.ar      1 <0>         0.0827
     12 C10         0.1681    1.2403   -0.1921 C.ar      1 <0>        -0.1669
     13 C11         1.1653    0.2860   -0.1678 C.ar      1 <0>        -0.1499
     14 C12         2.4984    0.6722   -0.1156 C.ar      1 <0>         0.1870
     15 C13         2.8428    2.0145   -0.0889 C.ar      1 <0>        -0.1045
     16 C14         1.8343    2.9687   -0.1127 C.ar      1 <0>        -0.1087
     17 C15         4.2647    2.4756   -0.0362 C.3       1 <0>        -0.0062
     18 H1          4.2980    3.2660   -0.8005 H         1 <0>         0.0943
     19 C16         4.6302    2.9795    1.3398 C.2       1 <0>        -0.1579
     20 C17         5.8688    2.6601    1.6256 C.2       1 <0>        -0.1681
     21 C18         6.5012    1.9027    0.4740 C.3       1 <0>        -0.0869
     22 C19         5.2752    1.3442   -0.3069 C.3       1 <0>        -0.0864
     23 H2          5.4151    1.0976   -1.3697 H         1 <0>         0.1026
     24 C20         4.8280    0.0628    0.4021 C.3       1 <0>         0.1983
     25 H3          5.5133   -0.7717    0.1927 H         1 <0>         0.0982
     26 N1          3.4971   -0.3111   -0.0878 N.pl3     1 <0>        -0.7606
     27 C21         4.7696    0.3025    1.8888 C.ar      1 <0>        -0.0780
     28 C22         5.8806    0.0537    2.6729 C.ar      1 <0>        -0.1004
     29 C23         5.8294    0.2787    4.0356 C.ar      1 <0>        -0.1113
     30 C24         4.6625    0.7423    4.6166 C.ar      1 <0>        -0.0367
     31 C25         3.5492    0.9858    3.8321 C.ar      1 <0>        -0.1128
     32 C26         3.6033    0.7657    2.4687 C.ar      1 <0>        -0.0892
     33 Cl1         4.5951    1.0179    6.3292 Cl        1 <0>        -0.0766
     34 H4         -5.5336    9.2327   -2.1693 H         1 <0>         0.1241
     35 H5         -3.8871    8.5926   -3.8832 H         1 <0>         0.1297
     36 H6         -2.4860    6.5946   -3.5611 H         1 <0>         0.1305
     37 H7         -4.3941    5.8711    0.1940 H         1 <0>         0.1267
     38 H8         -5.7829    7.8773   -0.1300 H         1 <0>         0.1249
     39 H9         -2.5694    4.9119    0.5907 H         1 <0>         0.0757
     40 H10        -3.8129    3.9082   -0.2294 H         1 <0>         0.0853
     41 H11        -2.0354    2.4467    0.6331 H         1 <0>         0.0840
     42 H12        -1.9643    2.4666   -1.1617 H         1 <0>         0.0738
     43 H13        -0.8688    0.9413   -0.2333 H         1 <0>         0.1262
     44 H14         0.9083   -0.7628   -0.1890 H         1 <0>         0.1241
     45 H15         2.0889    4.0180   -0.0908 H         1 <0>         0.1278
     46 H16         4.0241    3.5379    2.0684 H         1 <0>         0.1246
     47 H17         6.3010    2.9472    2.5955 H         1 <0>         0.1251
     48 H18         7.1050    2.5942   -0.1320 H         1 <0>         0.0801
     49 H19         7.1455    1.1040    0.8702 H         1 <0>         0.0749
     50 H20         3.3032   -1.3412   -0.4215 H         1 <0>         0.4250
     51 H21         6.7901   -0.3124    2.2199 H         1 <0>         0.1283
     52 H22         6.6988    0.0885    4.6475 H         1 <0>         0.1297
     53 H23         2.6381    1.3480    4.2850 H         1 <0>         0.1261
     54 H24         2.7342    0.9554    1.8562 H         1 <0>         0.1407
@<TRIPOS>BOND
     1    1    6 ar
     2    1    2 ar
     3    1   34 1
     4    2    3 ar
     5    2   35 1
     6    3    4 ar
     7    3   36 1
     8    4    5 ar
     9    4    7 1
    10    5    6 ar
    11    5   37 1
    12    6   38 1
    13    7    8 1
    14    8    9 1
    15    8   39 1
    16    8   40 1
    17    9   10 1
    18    9   41 1
    19    9   42 1
    20   10   11 1
    21   11   16 ar
    22   11   12 ar
    23   12   13 ar
    24   12   43 1
    25   13   14 ar
    26   13   44 1
    27   14   26 1
    28   14   15 ar
    29   15   16 ar
    30   15   17 1
    31   16   45 1
    32   17   18 1
    33   17   22 1
    34   17   19 1
    35   19   20 2
    36   19   46 1
    37   20   21 1
    38   20   47 1
    39   21   22 1
    40   21   48 1
    41   21   49 1
    42   22   23 1
    43   22   24 1
    44   24   25 1
    45   24   26 1
    46   24   27 1
    47   26   50 1
    48   27   32 ar
    49   27   28 ar
    50   28   29 ar
    51   28   51 1
    52   29   30 ar
    53   29   52 1
    54   30   31 ar
    55   30   33 1
    56   31   32 ar
    57   31   53 1
    58   32   54 1
@<TRIPOS>MOLECULE
ZINC39493883
   54    57     0     0     0
SMALL
USER_CHARGES

@<TRIPOS>ATOM
      1 C1          2.9603   -2.4986    3.5291 C.ar      1 <0>        -0.1125
      2 C2          1.9315   -1.7921    2.9345 C.ar      1 <0>        -0.1152
      3 C3          2.1391   -1.1550    1.7255 C.ar      1 <0>        -0.1003
      4 C4          3.3755   -1.2238    1.1112 C.ar      1 <0>        -0.0714
      5 C5          4.4046   -1.9295    1.7062 C.ar      1 <0>        -0.1096
      6 C6          4.1966   -2.5678    2.9146 C.ar      1 <0>        -0.1136
      7 C7          3.6015   -0.5300   -0.2073 C.3       1 <0>        -0.0938
      8 H1          2.7035    0.0213   -0.4864 H         1 <0>         0.1095
      9 C8          3.9163   -1.5706   -1.2839 C.3       1 <0>         0.2068
     10 H2          4.7814   -2.1591   -0.9783 H         1 <0>         0.1088
     11 C9          2.7287   -2.4803   -1.4657 C.ar      1 <0>        -0.0918
     12 C10         1.6065   -2.0267   -2.1334 C.ar      1 <0>        -0.1066
     13 C11         0.5171   -2.8612   -2.3002 C.ar      1 <0>        -0.1209
     14 C12         0.5502   -4.1494   -1.7998 C.ar      1 <0>        -0.1157
     15 C13         1.6727   -4.6032   -1.1330 C.ar      1 <0>        -0.1174
     16 C14         2.7638   -3.7702   -0.9699 C.ar      1 <0>        -0.0902
     17 N1          4.2096   -0.8916   -2.5485 N.am      1 <0>        -0.7207
     18 C15         4.9783   -1.4965   -3.4756 C.2       1 <0>         0.5677
     19 O1          5.4282   -2.6054   -3.2626 O.2       1 <0>        -0.5247
     20 C16         5.2743   -0.8113   -4.7519 C.ar      1 <0>        -0.1337
     21 C17         4.7639    0.4644   -4.9973 C.ar      1 <0>        -0.0872
     22 C18         5.0443    1.0984   -6.1900 C.ar      1 <0>        -0.1269
     23 C19         5.8290    0.4723   -7.1421 C.ar      1 <0>        -0.0933
     24 C20         6.3376   -0.7925   -6.9053 C.ar      1 <0>        -0.1263
     25 C21         6.0700   -1.4350   -5.7142 C.ar      1 <0>        -0.0590
     26 C22         4.7588    0.4267   -0.0797 C.2       1 <0>         0.4034
     27 O2          5.8737    0.0761   -0.4027 O.2       1 <0>        -0.4300
     28 C23         4.5359    1.7866    0.4370 C.ar      1 <0>        -0.1687
     29 C24         3.2525    2.1928    0.8161 C.ar      1 <0>        -0.0717
     30 C25         3.0519    3.4684    1.2997 C.ar      1 <0>        -0.1315
     31 C26         4.1165    4.3458    1.4105 C.ar      1 <0>        -0.0852
     32 C27         5.3895    3.9514    1.0370 C.ar      1 <0>        -0.1314
     33 C28         5.6074    2.6773    0.5569 C.ar      1 <0>        -0.0595
     34 H3          2.7994   -2.9926    4.4759 H         1 <0>         0.1235
     35 H4          0.9655   -1.7384    3.4145 H         1 <0>         0.1245
     36 H5          1.3351   -0.6036    1.2606 H         1 <0>         0.1222
     37 H6          5.3705   -1.9835    1.2261 H         1 <0>         0.1236
     38 H7          5.0005   -3.1195    3.3792 H         1 <0>         0.1246
     39 H8          1.5807   -1.0203   -2.5243 H         1 <0>         0.1155
     40 H9         -0.3599   -2.5066   -2.8212 H         1 <0>         0.1211
     41 H10        -0.3012   -4.8011   -1.9296 H         1 <0>         0.1209
     42 H11         1.6984   -5.6096   -0.7418 H         1 <0>         0.1219
     43 H12         3.6423   -4.1260   -0.4522 H         1 <0>         0.1199
     44 H13         3.8505   -0.0067   -2.7185 H         1 <0>         0.3961
     45 H14         4.1506    0.9539   -4.2552 H         1 <0>         0.1219
     46 H15         4.6500    2.0855   -6.3812 H         1 <0>         0.1292
     47 H16         6.0452    0.9728   -8.0743 H         1 <0>         0.1282
     48 H17         6.9492   -1.2759   -7.6527 H         1 <0>         0.1310
     49 H18         6.4716   -2.4202   -5.5285 H         1 <0>         0.1364
     50 H19         2.4207    1.5094    0.7299 H         1 <0>         0.1296
     51 H20         2.0613    3.7838    1.5925 H         1 <0>         0.1302
     52 H21         3.9530    5.3436    1.7900 H         1 <0>         0.1286
     53 H22         6.2151    4.6419    1.1260 H         1 <0>         0.1302
     54 H23         6.6021    2.3695    0.2701 H         1 <0>         0.1334
@<TRIPOS>BOND
     1    1    6 ar
     2    1    2 ar
     3    1   34 1
     4    2    3 ar
     5    2   35 1
     6    3    4 ar
     7    3   36 1
     8    4    5 ar
     9    4    7 1
    10    5    6 ar
    11    5   37 1
    12    6   38 1
    13    7    8 1
    14    7    9 1
    15    7   26 1
    16    9   10 1
    17    9   11 1
    18    9   17 1
    19   11   16 ar
    20   11   12 ar
    21   12   13 ar
    22   12   39 1
    23   13   14 ar
    24   13   40 1
    25   14   15 ar
    26   14   41 1
    27   15   16 ar
    28   15   42 1
    29   16   43 1
    30   17   18 am
    31   17   44 1
    32   18   19 2
    33   18   20 1
    34   20   25 ar
    35   20   21 ar
    36   21   22 ar
    37   21   45 1
    38   22   23 ar
    39   22   46 1
    40   23   24 ar
    41   23   47 1
    42   24   25 ar
    43   24   48 1
    44   25   49 1
    45   26   27 2
    46   26   28 1
    47   28   33 ar
    48   28   29 ar
    49   29   30 ar
    50   29   50 1
    51   30   31 ar
    52   30   51 1
    53   31   32 ar
    54   31   52 1
    55   32   33 ar
    56   32   53 1
    57   33   54 1
@<TRIPOS>MOLECULE
ZINC59187766
   47    49     0     0     0
SMALL
USER_CHARGES

@<TRIPOS>ATOM
      1 C1          0.0725    0.0752    0.5515 C.3       1 <0>        -0.1464
      2 C2         -0.2032   -1.4234    0.4131 C.3       1 <0>        -0.0889
      3 C3         -1.6880   -1.6520    0.2934 C.ar      1 <0>        -0.0693
      4 C4         -2.4512   -1.8463    1.4294 C.ar      1 <0>        -0.1238
      5 C5         -3.8131   -2.0560    1.3197 C.ar      1 <0>        -0.0815
      6 C6         -4.4119   -2.0710    0.0738 C.ar      1 <0>        -0.1236
      7 C7         -3.6488   -1.8758   -1.0622 C.ar      1 <0>        -0.1030
      8 C8         -2.2876   -1.6618   -0.9521 C.ar      1 <0>        -0.1271
      9 C9         -5.8965   -2.3006   -0.0460 C.3       1 <0>         0.1518
     10 N1         -6.5952   -1.0139    0.0035 N.pl3     1 <0>        -0.5510
     11 C10        -6.8575   -0.2748   -1.2340 C.3       1 <0>         0.1734
     12 C11        -8.1925   -0.6922   -1.7950 C.2       1 <0>        -0.0534
     13 C12        -9.3767   -0.1179   -1.5173 C.2       1 <0>        -0.1812
     14 C13       -10.3562   -0.8216   -2.2551 C.2       1 <0>        -0.2135
     15 C14        -9.7119   -1.7839   -2.9395 C.2       1 <0>        -0.0189
     16 O1         -8.4008   -1.6970   -2.6614 O.3       1 <0>        -0.1671
     17 C15        -6.9966   -0.5101    1.1873 C.2       1 <0>         0.5571
     18 S1         -6.6900   -1.3738    2.6333 S.2       1 <0>        -0.5927
     19 N2         -7.6394    0.6736    1.2328 N.pl3     1 <0>        -0.6337
     20 C16        -8.1582    1.1420    2.4451 C.ar      1 <0>         0.1456
     21 C17        -8.0279    2.4822    2.7861 C.ar      1 <0>        -0.1090
     22 C18        -8.5405    2.9425    3.9829 C.ar      1 <0>        -0.0909
     23 C19        -9.1839    2.0700    4.8430 C.ar      1 <0>        -0.0279
     24 C20        -9.3151    0.7332    4.5062 C.ar      1 <0>        -0.0218
     25 C21        -8.8091    0.2690    3.3064 C.ar      1 <0>        -0.0536
     26 Cl1       -10.1219   -0.3588    5.5880 Cl        1 <0>        -0.0384
     27 Cl2        -9.8271    2.6521    6.3467 Cl        1 <0>        -0.0443
     28 H1          1.1464    0.2405    0.6381 H         1 <0>         0.0591
     29 H2         -0.3057    0.5969   -0.3275 H         1 <0>         0.0542
     30 H3         -0.4267    0.4556    1.4427 H         1 <0>         0.0557
     31 H4          0.2960   -1.8039   -0.4781 H         1 <0>         0.0718
     32 H5          0.1750   -1.9452    1.2922 H         1 <0>         0.0731
     33 H6         -1.9834   -1.8346    2.4028 H         1 <0>         0.1217
     34 H7         -4.4093   -2.2085    2.2072 H         1 <0>         0.1498
     35 H8         -4.1166   -1.8879   -2.0356 H         1 <0>         0.1175
     36 H9         -1.6920   -1.5057   -1.8394 H         1 <0>         0.1203
     37 H10        -6.1124   -2.7952   -0.9930 H         1 <0>         0.0962
     38 H11        -6.2345   -2.9295    0.7777 H         1 <0>         0.1235
     39 H12        -6.8704    0.7944   -1.0227 H         1 <0>         0.1083
     40 H13        -6.0742   -0.4923   -1.9601 H         1 <0>         0.1175
     41 H14        -9.5468    0.7196   -0.8570 H         1 <0>         0.1446
     42 H15       -11.4180   -0.6246   -2.2667 H         1 <0>         0.1534
     43 H16       -10.1706   -2.5019   -3.6032 H         1 <0>         0.2085
     44 H17        -7.7424    1.2009    0.4251 H         1 <0>         0.4067
     45 H18        -7.5256    3.1638    2.1157 H         1 <0>         0.1401
     46 H19        -8.4388    3.9844    4.2481 H         1 <0>         0.1489
     47 H20        -8.9159   -0.7725    3.0414 H         1 <0>         0.1622
@<TRIPOS>BOND
     1    1    2 1
     2    1   28 1
     3    1   29 1
     4    1   30 1
     5    2    3 1
     6    2   31 1
     7    2   32 1
     8    3    8 ar
     9    3    4 ar
    10    4    5 ar
    11    4   33 1
    12    5    6 ar
    13    5   34 1
    14    6    7 ar
    15    6    9 1
    16    7    8 ar
    17    7   35 1
    18    8   36 1
    19    9   10 1
    20    9   37 1
    21    9   38 1
    22   10   11 1
    23   10   17 1
    24   11   12 1
    25   11   39 1
    26   11   40 1
    27   12   16 1
    28   12   13 2
    29   13   14 1
    30   13   41 1
    31   14   15 2
    32   14   42 1
    33   15   16 1
    34   15   43 1
    35   17   18 2
    36   17   19 1
    37   19   20 1
    38   19   44 1
    39   20   25 ar
    40   20   21 ar
    41   21   22 ar
    42   21   45 1
    43   22   23 ar
    44   22   46 1
    45   23   24 ar
    46   23   27 1
    47   24   25 ar
    48   24   26 1
    49   25   47 1
@<TRIPOS>MOLECULE
ZINC11316290
   44    45     0     0     0
SMALL
USER_CHARGES
(4-bromophenyl)methyl 2-(2,6-difluorobenzoyl)amino-3-methyl-butanoate
@<TRIPOS>ATOM
      1 C1         -3.0154    2.7944   -1.4055 C.3       1 <0>        -0.1576
      2 C2         -1.6801    2.0475   -1.4159 C.3       1 <0>        -0.0991
      3 C3         -0.5997    2.9428   -2.0258 C.3       1 <0>        -0.1415
      4 C4         -1.2896    1.6810    0.0173 C.3       1 <0>         0.1584
      5 H1         -1.1929    2.5898    0.6112 H         1 <0>         0.1312
      6 C5         -2.3538    0.7992    0.6180 C.2       1 <0>         0.4648
      7 O1         -2.0731   -0.3126    0.9988 O.2       1 <0>        -0.4985
      8 O2         -3.6136    1.2488    0.7301 O.3       1 <0>        -0.3347
      9 C6         -4.5861    0.3453    1.3183 C.3       1 <0>         0.1030
     10 C7         -5.9343    1.0174    1.3617 C.ar      1 <0>        -0.0850
     11 C8         -6.3025    1.7565    2.4703 C.ar      1 <0>        -0.0870
     12 C9         -7.5370    2.3771    2.5085 C.ar      1 <0>        -0.0926
     13 C10        -8.4081    2.2498    1.4416 C.ar      1 <0>        -0.0792
     14 C11        -8.0413    1.5057    0.3348 C.ar      1 <0>        -0.0927
     15 C12        -6.8046    0.8898    0.2952 C.ar      1 <0>        -0.0874
     16 Br1       -10.0998    3.0932    1.4961 Br        1 <0>        -0.0434
     17 N1         -0.0111    0.9658    0.0074 N.am      1 <0>        -0.7060
     18 C13         1.1468    1.6555   -0.0000 C.2       1 <0>         0.5769
     19 O3          1.1303    2.8713    0.0067 O.2       1 <0>        -0.5033
     20 C14         2.4344    0.9353   -0.0162 C.ar      1 <0>        -0.2038
     21 C15         3.0339    0.5933   -1.2331 C.ar      1 <0>         0.1651
     22 C16         4.2428   -0.0768   -1.2390 C.ar      1 <0>        -0.1633
     23 C17         4.8543   -0.4189   -0.0465 C.ar      1 <0>        -0.0399
     24 C18         4.2658   -0.0897    1.1610 C.ar      1 <0>        -0.1630
     25 C19         3.0599    0.5854    1.1853 C.ar      1 <0>         0.1663
     26 F1          2.4867    0.9060    2.3660 F         1 <0>        -0.1197
     27 F2          2.4355    0.9215   -2.3990 F         1 <0>        -0.1194
     28 H2         -2.9187    3.7033   -0.8116 H         1 <0>         0.0619
     29 H3         -3.2936    3.0555   -2.4265 H         1 <0>         0.0635
     30 H4         -3.7851    2.1566   -0.9710 H         1 <0>         0.0777
     31 H5         -1.7768    1.1387   -2.0098 H         1 <0>         0.0778
     32 H6          0.3516    2.4107   -2.0332 H         1 <0>         0.0552
     33 H7         -0.8779    3.2039   -3.0468 H         1 <0>         0.0583
     34 H8         -0.5030    3.8516   -1.4319 H         1 <0>         0.0684
     35 H9         -4.6511   -0.5608    0.7159 H         1 <0>         0.0862
     36 H10        -4.2762    0.0869    2.3309 H         1 <0>         0.0858
     37 H11        -5.6239    1.8525    3.3050 H         1 <0>         0.1353
     38 H12        -7.8228    2.9582    3.3728 H         1 <0>         0.1378
     39 H13        -8.7211    1.4063   -0.4986 H         1 <0>         0.1377
     40 H14        -6.5180    0.3092   -0.5691 H         1 <0>         0.1352
     41 H15         0.0021   -0.0041    0.0020 H         1 <0>         0.4131
     42 H16         4.7094   -0.3374   -2.1775 H         1 <0>         0.1525
     43 H17         5.7966   -0.9464   -0.0584 H         1 <0>         0.1524
     44 H18         4.7500   -0.3606    2.0875 H         1 <0>         0.1526
@<TRIPOS>BOND
     1    1    2 1
     2    1   28 1
     3    1   29 1
     4    1   30 1
     5    2    3 1
     6    2    4 1
     7    2   31 1
     8    3   32 1
     9    3   33 1
    10    3   34 1
    11    4    5 1
    12    4    6 1
    13    4   17 1
    14    6    7 2
    15    6    8 1
    16    8    9 1
    17    9   10 1
    18    9   35 1
    19    9   36 1
    20   10   15 ar
    21   10   11 ar
    22   11   12 ar
    23   11   37 1
    24   12   13 ar
    25   12   38 1
    26   13   14 ar
    27   13   16 1
    28   14   15 ar
    29   14   39 1
    30   15   40 1
    31   17   18 am
    32   17   41 1
    33   18   19 2
    34   18   20 1
    35   20   25 ar
    36   20   21 ar
    37   21   22 ar
    38   21   27 1
    39   22   23 ar
    40   22   42 1
    41   23   24 ar
    42   23   43 1
    43   24   25 ar
    44   24   44 1
    45   25   26 1
@<TRIPOS>MOLECULE
ZINC22717094
   45    46     0     0     0
SMALL
USER_CHARGES
[(1R)-2-[[(1R)-1-(4-fluorophenyl)ethyl]amino]-1-methyl-2-oxo-ethyl] (E)-3-(5-bromo-2-fluoro-phenyl)prop-2-enoate
@<TRIPOS>ATOM
      1 C1          3.3381    7.2678   -3.1164 C.3       1 <0>        -0.1607
      2 C2          3.3078    7.4865   -1.6024 C.3       1 <0>         0.1896
      3 H1          2.3531    7.9325   -1.2867 H         1 <0>         0.1006
      4 C3          4.4487    8.3859   -1.2019 C.ar      1 <0>        -0.1025
      5 C4          5.7218    7.8656   -1.0614 C.ar      1 <0>        -0.0865
      6 C5          6.7699    8.6906   -0.6996 C.ar      1 <0>        -0.1480
      7 C6          6.5424   10.0363   -0.4664 C.ar      1 <0>         0.1011
      8 C7          5.2659   10.5551   -0.6020 C.ar      1 <0>        -0.1475
      9 C8          4.2204    9.7295   -0.9698 C.ar      1 <0>        -0.0768
     10 F1          7.5651   10.8424   -0.1065 F         1 <0>        -0.1373
     11 N1          3.4398    6.1969   -0.9199 N.am      1 <0>        -0.7337
     12 C9          2.3495    5.4353   -0.7016 C.2       1 <0>         0.5228
     13 O1          1.2591    5.8176   -1.0702 O.2       1 <0>        -0.5163
     14 C10         2.4852    4.1088    0.0004 C.3       1 <0>         0.0688
     15 H2          3.1749    3.4519   -0.5499 H         1 <0>         0.1120
     16 C11         2.9502    4.3387    1.4398 C.3       1 <0>        -0.1673
     17 O2          1.2210    3.4428    0.0089 O.3       1 <0>        -0.3225
     18 C12         1.2393    2.0937    0.0015 C.2       1 <0>         0.5016
     19 O3          2.3008    1.4999   -0.0119 O.2       1 <0>        -0.5059
     20 C13        -0.0162    1.3459    0.0094 C.2       1 <0>        -0.1837
     21 C14         0.0021   -0.0041    0.0020 C.2       1 <0>        -0.0090
     22 C15        -1.2612   -0.7566    0.0100 C.ar      1 <0>        -0.1062
     23 C16        -2.4844   -0.0776    0.0312 C.ar      1 <0>        -0.0422
     24 C17        -3.6647   -0.7904    0.0342 C.ar      1 <0>        -0.1069
     25 C18        -3.6429   -2.1759    0.0266 C.ar      1 <0>        -0.0452
     26 C19        -2.4394   -2.8562    0.0105 C.ar      1 <0>        -0.1481
     27 C20        -1.2468   -2.1574    0.0024 C.ar      1 <0>         0.1431
     28 F2         -0.0713   -2.8231   -0.0124 F         1 <0>        -0.1223
     29 Br1        -5.3188    0.1259    0.0562 Br        1 <0>        -0.0294
     30 H3          2.5053    6.6113   -3.4088 H         1 <0>         0.0675
     31 H4          4.2918    6.7988   -3.4001 H         1 <0>         0.0621
     32 H5          3.2390    8.2361   -3.6288 H         1 <0>         0.0714
     33 H6          5.8981    6.8149   -1.2383 H         1 <0>         0.1320
     34 H7          7.7653    8.2848   -0.5946 H         1 <0>         0.1387
     35 H8          5.0871   11.6046   -0.4200 H         1 <0>         0.1392
     36 H9          3.2246   10.1340   -1.0756 H         1 <0>         0.1366
     37 H10         4.4288    5.8502   -0.5856 H         1 <0>         0.4199
     38 H11         3.0492    3.3704    1.9522 H         1 <0>         0.0773
     39 H12         2.2122    4.9597    1.9688 H         1 <0>         0.0765
     40 H13         3.9234    4.8513    1.4332 H         1 <0>         0.0824
     41 H14        -0.9762    1.8829    0.0214 H         1 <0>         0.1502
     42 H15         0.9621   -0.5411   -0.0100 H         1 <0>         0.1516
     43 H16        -2.5040    1.0022    0.0414 H         1 <0>         0.1513
     44 H17        -4.5714   -2.7276    0.0329 H         1 <0>         0.1490
     45 H18        -2.4311   -3.9362    0.0046 H         1 <0>         0.1528
@<TRIPOS>BOND
     1    1    2 1
     2    1   30 1
     3    1   31 1
     4    1   32 1
     5    2    3 1
     6    2    4 1
     7    2   11 1
     8    4    9 ar
     9    4    5 ar
    10    5    6 ar
    11    5   33 1
    12    6    7 ar
    13    6   34 1
    14    7    8 ar
    15    7   10 1
    16    8    9 ar
    17    8   35 1
    18    9   36 1
    19   11   12 am
    20   11   37 1
    21   12   13 2
    22   12   14 1
    23   14   15 1
    24   14   16 1
    25   14   17 1
    26   16   38 1
    27   16   39 1
    28   16   40 1
    29   17   18 1
    30   18   19 2
    31   18   20 1
    32   20   21 2
    33   20   41 1
    34   21   22 1
    35   21   42 1
    36   22   27 ar
    37   22   23 ar
    38   23   24 ar
    39   23   43 1
    40   24   25 ar
    41   24   29 1
    42   25   26 ar
    43   25   44 1
    44   26   27 ar
    45   26   45 1
    46   27   28 1
@<TRIPOS>MOLECULE
ZINC36319006
   58    61     0     0     0
SMALL
USER_CHARGES

@<TRIPOS>ATOM
      1 C1         -0.2918    3.1011    1.2891 C.3       1 <0>         0.0269
      2 O1          0.1449    1.7685    1.0145 O.3       1 <0>        -0.3186
      3 C2          0.7659    1.1025    2.0233 C.ar      1 <0>         0.1234
      4 C3          0.9459    1.7168    3.2541 C.ar      1 <0>        -0.2061
      5 C4          1.5771    1.0375    4.2781 C.ar      1 <0>        -0.0748
      6 C5          2.0296   -0.2534    4.0771 C.ar      1 <0>        -0.1213
      7 C6          1.8518   -0.8678    2.8512 C.ar      1 <0>        -0.0755
      8 C7          1.2158   -0.1950    1.8259 C.ar      1 <0>        -0.1497
      9 C8          2.7182   -0.9919    5.1958 C.3       1 <0>        -0.0594
     10 C9          1.6788   -1.7569    6.0176 C.3       1 <0>        -0.1337
     11 C10         2.3674   -2.4954    7.1362 C.2       1 <0>         0.5125
     12 O2          3.5709   -2.4176    7.2637 O.2       1 <0>        -0.5413
     13 N1          1.6457   -3.2424    7.9951 N.am      1 <0>        -0.7205
     14 C11         2.3151   -3.9604    9.0826 C.3       1 <0>         0.1297
     15 C12         1.2661   -4.6229    9.9779 C.3       1 <0>         0.1562
     16 H1          0.7250   -5.3772    9.4067 H         1 <0>         0.1141
     17 C13         1.9482   -5.2759   11.1524 C.2       1 <0>        -0.1882
     18 C14         2.0925   -6.5946   11.4307 C.2       1 <0>        -0.1362
     19 C15         2.7646   -6.9676   12.5796 C.2       1 <0>        -0.1611
     20 C16         3.2596   -6.0036   13.3939 C.2       1 <0>        -0.1783
     21 S1          2.7828   -4.5133   12.5342 S.3       1 <0>         0.0564
     22 N2          0.3232   -3.6060   10.4626 N.3       1 <0>        -0.5126
     23 C17         1.0227   -2.5579   11.2226 C.3       1 <0>         0.0336
     24 C18         0.0815   -1.3636   11.3819 C.3       1 <0>        -0.0714
     25 C19        -1.2529   -1.8269   11.9075 C.ar      1 <0>        -0.0682
     26 C20        -2.1120   -0.8849   12.4533 C.ar      1 <0>        -0.1199
     27 C21        -3.3450   -1.2663   12.9427 C.ar      1 <0>        -0.1185
     28 C22        -3.7260   -2.5943   12.8876 C.ar      1 <0>        -0.1212
     29 C23        -2.8713   -3.5327   12.3458 C.ar      1 <0>        -0.1151
     30 C24        -1.6305   -3.1515   11.8560 C.ar      1 <0>        -0.0773
     31 C25        -0.7281   -4.2135   11.2846 C.3       1 <0>         0.0920
     32 H2          0.5661    3.7158    1.5614 H         1 <0>         0.0557
     33 H3         -0.7699    3.5168    0.4022 H         1 <0>         0.1007
     34 H4         -1.0049    3.0871    2.1134 H         1 <0>         0.0556
     35 H5          0.5933    2.7254    3.4114 H         1 <0>         0.1276
     36 H6          1.7175    1.5154    5.2364 H         1 <0>         0.1247
     37 H7          2.2064   -1.8761    2.6965 H         1 <0>         0.1295
     38 H8          1.0732   -0.6768    0.8699 H         1 <0>         0.1306
     39 H9          3.4393   -1.6942    4.7777 H         1 <0>         0.0794
     40 H10         3.2356   -0.2788    5.8375 H         1 <0>         0.0786
     41 H11         0.9576   -1.0546    6.4356 H         1 <0>         0.0949
     42 H12         1.1614   -2.4700    5.3758 H         1 <0>         0.0948
     43 H13         0.6831   -3.3047    7.8932 H         1 <0>         0.4086
     44 H14         2.9705   -4.7243    8.6643 H         1 <0>         0.0769
     45 H15         2.9050   -3.2586    9.6722 H         1 <0>         0.0748
     46 H16         1.6881   -7.3427   10.7650 H         1 <0>         0.1337
     47 H17         2.8932   -8.0115   12.8249 H         1 <0>         0.1336
     48 H18         3.8045   -6.1096   14.3203 H         1 <0>         0.1841
     49 H19         1.2984   -2.9404   12.2054 H         1 <0>         0.0571
     50 H20         1.9177   -2.2493   10.6824 H         1 <0>         0.0872
     51 H21         0.5176   -0.6497   12.0807 H         1 <0>         0.0798
     52 H22        -0.0583   -0.8814   10.4144 H         1 <0>         0.0848
     53 H23        -1.8146    0.1524   12.4960 H         1 <0>         0.1212
     54 H24        -4.0102   -0.5294   13.3679 H         1 <0>         0.1218
     55 H25        -4.6904   -2.8967   13.2682 H         1 <0>         0.1221
     56 H26        -3.1699   -4.5697   12.3031 H         1 <0>         0.1207
     57 H27        -1.3175   -4.8937   10.6697 H         1 <0>         0.0900
     58 H28        -0.2693   -4.7726   12.1000 H         1 <0>         0.0558
@<TRIPOS>BOND
     1    1    2 1
     2    1   32 1
     3    1   33 1
     4    1   34 1
     5    2    3 1
     6    3    8 ar
     7    3    4 ar
     8    4    5 ar
     9    4   35 1
    10    5    6 ar
    11    5   36 1
    12    6    7 ar
    13    6    9 1
    14    7    8 ar
    15    7   37 1
    16    8   38 1
    17    9   10 1
    18    9   39 1
    19    9   40 1
    20   10   11 1
    21   10   41 1
    22   10   42 1
    23   11   12 2
    24   11   13 am
    25   13   14 1
    26   13   43 1
    27   14   15 1
    28   14   44 1
    29   14   45 1
    30   15   16 1
    31   15   17 1
    32   15   22 1
    33   17   21 1
    34   17   18 2
    35   18   19 1
    36   18   46 1
    37   19   20 2
    38   19   47 1
    39   20   21 1
    40   20   48 1
    41   22   31 1
    42   22   23 1
    43   23   24 1
    44   23   49 1
    45   23   50 1
    46   24   25 1
    47   24   51 1
    48   24   52 1
    49   25   30 ar
    50   25   26 ar
    51   26   27 ar
    52   26   53 1
    53   27   28 ar
    54   27   54 1
    55   28   29 ar
    56   28   55 1
    57   29   30 ar
    58   29   56 1
    59   30   31 1
    60   31   57 1
    61   31   58 1
@<TRIPOS>MOLECULE
ZINC40208740
   48    50     0     0     0
SMALL
USER_CHARGES

@<TRIPOS>ATOM
      1 C1         -0.0157    1.3071    0.0092 C.2       1 <0>        -0.1007
      2 C2          0.0021   -0.0041    0.0020 C.2       1 <0>        -0.1650
      3 C3          1.3172   -0.7397   -0.0145 C.3       1 <0>         0.1555
      4 N1          1.6977   -1.0906    1.3560 N.pl3     1 <0>        -0.4857
      5 C4          2.4469   -0.3177    2.2205 C.ar      1 <0>         0.0491
      6 C5          3.0482    0.9302    2.1278 C.ar      1 <0>        -0.1130
      7 C6          3.7462    1.4335    3.2048 C.ar      1 <0>        -0.0994
      8 C7          3.8517    0.7013    4.3789 C.ar      1 <0>        -0.1274
      9 C8          3.2670   -0.5285    4.4880 C.ar      1 <0>        -0.0626
     10 C9          2.5536   -1.0585    3.4096 C.ar      1 <0>         0.0483
     11 N2          1.8785   -2.2202    3.2138 N.2       1 <0>        -0.4858
     12 C10         1.3734   -2.2357    2.0148 C.2       1 <0>         0.2943
     13 C11         0.5518   -3.3600    1.4386 C.3       1 <0>        -0.0504
     14 C12         1.4761   -4.3656    0.7490 C.3       1 <0>        -0.1253
     15 C13         0.6419   -5.5070    0.1640 C.3       1 <0>         0.1200
     16 N3          1.5269   -6.4699   -0.4963 N.am      1 <0>        -0.7334
     17 C14         1.0098   -7.5652   -1.0874 C.2       1 <0>         0.5135
     18 O1         -0.1882   -7.7537   -1.0727 O.2       1 <0>        -0.5256
     19 C15         1.9201   -8.5556   -1.7667 C.3       1 <0>        -0.1034
     20 C16         1.0985   -9.6799   -2.3429 C.ar      1 <0>        -0.0651
     21 C17         0.8250  -10.7983   -1.5777 C.ar      1 <0>        -0.0919
     22 C18         0.0716  -11.8298   -2.1056 C.ar      1 <0>        -0.1085
     23 C19        -0.4089  -11.7428   -3.4001 C.ar      1 <0>        -0.0330
     24 C20        -0.1349  -10.6233   -4.1654 C.ar      1 <0>        -0.1089
     25 C21         0.6139   -9.5900   -3.6344 C.ar      1 <0>        -0.0923
     26 Cl1        -1.3549  -13.0382   -4.0640 Cl        1 <0>        -0.0702
     27 Br1        -1.6225   -0.9718    0.0123 Br        1 <0>        -0.0456
     28 H1          0.9121    1.8597    0.0033 H         1 <0>         0.1236
     29 H2         -0.9582    1.8343    0.0166 H         1 <0>         0.1219
     30 H3          1.2177   -1.6486   -0.6079 H         1 <0>         0.1078
     31 H4          2.0848   -0.1019   -0.4527 H         1 <0>         0.1096
     32 H5          2.9698    1.5039    1.2161 H         1 <0>         0.1187
     33 H6          4.2145    2.4042    3.1342 H         1 <0>         0.1304
     34 H7          4.4019    1.1076    5.2147 H         1 <0>         0.1303
     35 H8          3.3559   -1.0902    5.4062 H         1 <0>         0.1296
     36 H9          0.0057   -3.8584    2.2395 H         1 <0>         0.1070
     37 H10        -0.1547   -2.9585    0.7122 H         1 <0>         0.0938
     38 H11         2.0222   -3.8672   -0.0519 H         1 <0>         0.0694
     39 H12         2.1826   -4.7671    1.4753 H         1 <0>         0.0820
     40 H13         0.0958   -6.0054    0.9649 H         1 <0>         0.0738
     41 H14        -0.0646   -5.1055   -0.5624 H         1 <0>         0.0712
     42 H15         2.4850   -6.3191   -0.5081 H         1 <0>         0.4018
     43 H16         2.4662   -8.0572   -2.5676 H         1 <0>         0.1064
     44 H17         2.6267   -8.9571   -1.0403 H         1 <0>         0.1070
     45 H18         1.2005  -10.8662   -0.5673 H         1 <0>         0.1303
     46 H19        -0.1417  -12.7036   -1.5079 H         1 <0>         0.1343
     47 H20        -0.5095  -10.5550   -5.1760 H         1 <0>         0.1340
     48 H21         0.8239   -8.7139   -4.2301 H         1 <0>         0.1298
@<TRIPOS>BOND
     1    1    2 2
     2    1   28 1
     3    1   29 1
     4    2    3 1
     5    2   27 1
     6    3    4 1
     7    3   30 1
     8    3   31 1
     9    4   12 1
    10    4    5 1
    11    5   10 ar
    12    5    6 ar
    13    6    7 ar
    14    6   32 1
    15    7    8 ar
    16    7   33 1
    17    8    9 ar
    18    8   34 1
    19    9   10 ar
    20    9   35 1
    21   10   11 1
    22   11   12 2
    23   12   13 1
    24   13   14 1
    25   13   36 1
    26   13   37 1
    27   14   15 1
    28   14   38 1
    29   14   39 1
    30   15   16 1
    31   15   40 1
    32   15   41 1
    33   16   17 am
    34   16   42 1
    35   17   18 2
    36   17   19 1
    37   19   20 1
    38   19   43 1
    39   19   44 1
    40   20   25 ar
    41   20   21 ar
    42   21   22 ar
    43   21   45 1
    44   22   23 ar
    45   22   46 1
    46   23   24 ar
    47   23   26 1
    48   24   25 ar
    49   24   47 1
    50   25   48 1
@<TRIPOS>MOLECULE
ZINC60046993
   53    56     0     0     0
SMALL
USER_CHARGES

@<TRIPOS>ATOM
      1 C1         -0.0184    1.5028    0.0103 C.3       1 <0>        -0.0713
      2 C2          0.0021   -0.0041    0.0020 C.2       1 <0>         0.2223
      3 N1          0.0080   -0.7602   -1.0620 N.2       1 <0>        -0.4816
      4 C3          0.0270   -2.0489   -0.6911 C.2       1 <0>        -0.0174
      5 C4          0.0332   -2.0990    0.6547 C.2       1 <0>        -0.0510
      6 N2          0.0234   -0.8027    1.1003 N.pl3     1 <0>        -0.4221
      7 C5          0.0310   -0.3806    2.4384 C.ar      1 <0>         0.0904
      8 C6          1.1332   -0.6361    3.2419 C.ar      1 <0>        -0.0787
      9 C7          1.1382   -0.2196    4.5590 C.ar      1 <0>        -0.0938
     10 C8          0.0463    0.4514    5.0786 C.ar      1 <0>        -0.0715
     11 C9         -1.0543    0.7079    4.2823 C.ar      1 <0>        -0.1216
     12 C10        -1.0631    0.2994    2.9606 C.ar      1 <0>         0.1108
     13 F1         -2.1358    0.5557    2.1804 F         1 <0>        -0.1224
     14 C11         0.0560    0.9035    6.5161 C.3       1 <0>         0.1609
     15 N3          0.6172    2.2542    6.5995 N.am      1 <0>        -0.7191
     16 C12         0.7252    2.8664    7.7953 C.2       1 <0>         0.5457
     17 O1          0.3578    2.2992    8.8023 O.2       1 <0>        -0.5086
     18 C13         1.3024    4.2559    7.8810 C.3       1 <0>        -0.0720
     19 H1          0.9386    4.8527    7.0446 H         1 <0>         0.1195
     20 C14         2.8065    4.1792    7.8267 C.ar      1 <0>        -0.0940
     21 C15         3.4974    3.4656    8.7881 C.ar      1 <0>        -0.0883
     22 C16         4.8770    3.3952    8.7383 C.ar      1 <0>        -0.1143
     23 C17         5.5658    4.0381    7.7267 C.ar      1 <0>        -0.1069
     24 C18         4.8749    4.7510    6.7648 C.ar      1 <0>        -0.1157
     25 C19         3.4949    4.8178    6.8122 C.ar      1 <0>        -0.1082
     26 S1          0.7923    5.0273    9.4415 S.3       1 <0>        -0.0280
     27 C20         1.4122    6.6727    9.3262 C.ar      1 <0>        -0.0975
     28 C21         2.1063    7.0777    8.1924 C.ar      1 <0>        -0.1392
     29 C22         2.5907    8.3678    8.1056 C.ar      1 <0>        -0.1009
     30 C23         2.3858    9.2566    9.1452 C.ar      1 <0>        -0.1236
     31 C24         1.6958    8.8570   10.2753 C.ar      1 <0>        -0.1008
     32 C25         1.2032    7.5702   10.3665 C.ar      1 <0>        -0.0986
     33 H2          1.0042    1.8801    0.0026 H         1 <0>         0.0833
     34 H3         -0.5455    1.8639   -0.8728 H         1 <0>         0.0956
     35 H4         -0.5286    1.8543    0.9071 H         1 <0>         0.0701
     36 H5          0.0352   -2.8995   -1.3566 H         1 <0>         0.1766
     37 H6          0.0475   -2.9895    1.2656 H         1 <0>         0.1782
     38 H7          1.9864   -1.1607    2.8379 H         1 <0>         0.1449
     39 H8          1.9961   -0.4186    5.1841 H         1 <0>         0.1449
     40 H9         -1.9058    1.2316    4.6910 H         1 <0>         0.1508
     41 H10        -0.9633    0.9091    6.9021 H         1 <0>         0.0881
     42 H11         0.6649    0.2200    7.1079 H         1 <0>         0.0890
     43 H12         0.9110    2.7079    5.7940 H         1 <0>         0.4049
     44 H13         2.9592    2.9633    9.5784 H         1 <0>         0.1312
     45 H14         5.4168    2.8383    9.4898 H         1 <0>         0.1273
     46 H15         6.6437    3.9838    7.6882 H         1 <0>         0.1257
     47 H16         5.4130    5.2536    5.9747 H         1 <0>         0.1269
     48 H17         2.9549    5.3716    6.0585 H         1 <0>         0.1249
     49 H18         2.2670    6.3840    7.3804 H         1 <0>         0.1303
     50 H19         3.1306    8.6831    7.2250 H         1 <0>         0.1240
     51 H20         2.7658   10.2651    9.0746 H         1 <0>         0.1247
     52 H21         1.5379    9.5536   11.0853 H         1 <0>         0.1283
     53 H22         0.6600    7.2604   11.2470 H         1 <0>         0.1275
@<TRIPOS>BOND
     1    1    2 1
     2    1   33 1
     3    1   34 1
     4    1   35 1
     5    2    6 1
     6    2    3 2
     7    3    4 1
     8    4    5 2
     9    4   36 1
    10    5    6 1
    11    5   37 1
    12    6    7 1
    13    7   12 ar
    14    7    8 ar
    15    8    9 ar
    16    8   38 1
    17    9   10 ar
    18    9   39 1
    19   10   11 ar
    20   10   14 1
    21   11   12 ar
    22   11   40 1
    23   12   13 1
    24   14   15 1
    25   14   41 1
    26   14   42 1
    27   15   16 am
    28   15   43 1
    29   16   17 2
    30   16   18 1
    31   18   19 1
    32   18   20 1
    33   18   26 1
    34   20   25 ar
    35   20   21 ar
    36   21   22 ar
    37   21   44 1
    38   22   23 ar
    39   22   45 1
    40   23   24 ar
    41   23   46 1
    42   24   25 ar
    43   24   47 1
    44   25   48 1
    45   26   27 1
    46   27   32 ar
    47   27   28 ar
    48   28   29 ar
    49   28   49 1
    50   29   30 ar
    51   29   50 1
    52   30   31 ar
    53   30   51 1
    54   31   32 ar
    55   31   52 1
    56   32   53 1
@<TRIPOS>MOLECULE
ZINC13410362
   43    46     0     0     0
SMALL
USER_CHARGES
4-fluoro-3-[[4-methyl-5-(p-tolyl)-1,2,4-triazol-3-yl]sulfanylmethyl]benzothiophene-2-carboxylic acid
@<TRIPOS>ATOM
      1 C1         12.7584   -0.5834   -3.8861 C.3       1 <0>        -0.1156
      2 C2         11.4741   -0.0459   -3.3093 C.ar      1 <0>        -0.0797
      3 C3         10.5539    0.5738   -4.1360 C.ar      1 <0>        -0.1177
      4 C4          9.3765    1.0684   -3.6142 C.ar      1 <0>        -0.1130
      5 C5          9.1146    0.9425   -2.2490 C.ar      1 <0>        -0.0088
      6 C6         10.0494    0.3209   -1.4197 C.ar      1 <0>        -0.0729
      7 C7         11.2206   -0.1740   -1.9551 C.ar      1 <0>        -0.1171
      8 C8          7.8551    1.4706   -1.6829 C.2       1 <0>         0.2037
      9 N1          7.6137    1.7225   -0.4175 N.2       1 <0>        -0.2656
     10 N2          6.4177    2.1720   -0.2800 N.2       1 <0>        -0.2865
     11 C9          5.8219    2.2346   -1.4500 C.2       1 <0>         0.1814
     12 N3          6.7128    1.7854   -2.3824 N.pl3     1 <0>        -0.4648
     13 C10         6.4980    1.6658   -3.8266 C.3       1 <0>         0.0675
     14 S1          4.1775    2.7880   -1.7572 S.3       1 <0>         0.0142
     15 C11         3.6623    3.1944   -0.0703 C.3       1 <0>        -0.0459
     16 C12         2.2442    3.7040   -0.0872 C.2       1 <0>        -0.1156
     17 C13         1.9920    5.0773   -0.2483 C.ar      1 <0>        -0.0976
     18 C14         2.9324    6.1308   -0.4093 C.ar      1 <0>         0.1360
     19 C15         2.5105    7.4269   -0.5489 C.ar      1 <0>        -0.1634
     20 C16         1.1605    7.7549   -0.5381 C.ar      1 <0>        -0.0831
     21 C17         0.2189    6.7581   -0.3838 C.ar      1 <0>        -0.0817
     22 C18         0.6266    5.4487   -0.2421 C.ar      1 <0>        -0.1194
     23 S2         -0.2205    3.9035   -0.0256 S.3       1 <0>         0.1026
     24 C19         1.2065    2.8348    0.0494 C.2       1 <0>        -0.0827
     25 C20         1.2503    1.3780    0.2222 C.2       1 <0>         0.5208
     26 O1          2.3201    0.8012    0.2520 O.co2     1 <0>        -0.5859
     27 F1          4.2541    5.8516   -0.4254 F         1 <0>        -0.1296
     28 H1         13.5237    0.1921   -3.8539 H         1 <0>         0.0716
     29 H2         13.0873   -1.4429   -3.3022 H         1 <0>         0.0677
     30 H3         12.5931   -0.8880   -4.9196 H         1 <0>         0.0666
     31 H4         10.7577    0.6703   -5.1922 H         1 <0>         0.1267
     32 H5          8.6592    1.5523   -4.2605 H         1 <0>         0.1277
     33 H6          9.8545    0.2240   -0.3619 H         1 <0>         0.1371
     34 H7         11.9428   -0.6591   -1.3153 H         1 <0>         0.1290
     35 H8          6.8856    2.5536   -4.3263 H         1 <0>         0.0849
     36 H9          7.0175    0.7831   -4.1994 H         1 <0>         0.0959
     37 H10         5.4310    1.5719   -4.0286 H         1 <0>         0.0975
     38 H11         4.3199    3.9633    0.3351 H         1 <0>         0.1016
     39 H12         3.7202    2.3016    0.5523 H         1 <0>         0.1353
     40 H13         3.2435    8.2107   -0.6703 H         1 <0>         0.1348
     41 H14         0.8500    8.7833   -0.6501 H         1 <0>         0.1387
     42 H15        -0.8330    7.0025   -0.3737 H         1 <0>         0.1347
     43 O2          0.1038    0.6792    0.3480 O.co2     1 <0>        -0.7298
@<TRIPOS>BOND
     1    1    2 1
     2    1   28 1
     3    1   29 1
     4    1   30 1
     5    2    7 ar
     6    2    3 ar
     7    3    4 ar
     8    3   31 1
     9    4    5 ar
    10    4   32 1
    11    5    6 ar
    12    5    8 1
    13    6    7 ar
    14    6   33 1
    15    7   34 1
    16    8   12 1
    17    8    9 2
    18    9   10 1
    19   10   11 2
    20   11   12 1
    21   11   14 1
    22   12   13 1
    23   13   35 1
    24   13   36 1
    25   13   37 1
    26   14   15 1
    27   15   16 1
    28   15   38 1
    29   15   39 1
    30   16   24 2
    31   16   17 1
    32   17   22 ar
    33   17   18 ar
    34   18   19 ar
    35   18   27 1
    36   19   20 ar
    37   19   40 1
    38   20   21 ar
    39   20   41 1
    40   21   22 ar
    41   21   42 1
    42   22   23 1
    43   23   24 1
    44   24   25 1
    45   25   26 2
    46   25   43 1
@<TRIPOS>MOLECULE
ZINC06791242
   51    54     0     0     0
SMALL
USER_CHARGES
4-ethyl-5-[2-(4-sec-butylphenyl)-4-quinolyl]-1,2,4-triazole-3-thiol
@<TRIPOS>ATOM
      1 C1          0.3994    0.3927    0.6958 C.3       1 <0>        -0.1554
      2 C2         -0.4153    1.0032    1.8379 C.3       1 <0>        -0.1173
      3 C3          0.0386    0.3985    3.1681 C.3       1 <0>        -0.0534
      4 H1         -0.0427   -0.6977    3.1279 H         1 <0>         0.0776
      5 C4          1.4882    0.8028    3.4438 C.3       1 <0>        -0.1476
      6 C5         -0.8445    0.9070    4.2783 C.ar      1 <0>        -0.0669
      7 C6         -0.9130    2.2641    4.5376 C.ar      1 <0>        -0.1179
      8 C7         -1.7244    2.7358    5.5494 C.ar      1 <0>        -0.0944
      9 C8         -2.4671    1.8410    6.3180 C.ar      1 <0>        -0.0525
     10 C9         -2.3897    0.4743    6.0558 C.ar      1 <0>        -0.0725
     11 C10        -1.5793    0.0144    5.0379 C.ar      1 <0>        -0.1256
     12 C11        -3.3365    2.3414    7.4103 C.ar      1 <0>         0.2125
     13 C12        -3.3938    3.7181    7.6500 C.ar      1 <0>        -0.1689
     14 C13        -4.2055    4.2006    8.6715 C.ar      1 <0>         0.0974
     15 C14        -4.9646    3.2174    9.4478 C.ar      1 <0>        -0.0856
     16 C15        -5.8076    3.6052   10.4940 C.ar      1 <0>        -0.0700
     17 C16        -6.4959    2.6565   11.1916 C.ar      1 <0>        -0.1274
     18 C17        -6.3700    1.3066   10.8740 C.ar      1 <0>        -0.0957
     19 C18        -5.5581    0.8960    9.8611 C.ar      1 <0>        -0.1037
     20 C19        -4.8325    1.8459    9.1203 C.ar      1 <0>         0.1408
     21 N1         -4.0324    1.4730    8.1178 N.ar      1 <0>        -0.4787
     22 C20        -4.2976    5.6430    8.9614 C.2       1 <0>         0.1290
     23 N2         -4.2023    6.2101   10.1435 N.2       1 <0>        -0.2603
     24 N3         -4.3200    7.4847   10.0284 N.2       1 <0>        -0.3384
     25 C21        -4.5074    7.8091    8.7663 C.2       1 <0>         0.3820
     26 N4         -4.4997    6.6510    8.0449 N.pl3     1 <0>        -0.4781
     27 C22        -4.6712    6.5092    6.5969 C.3       1 <0>         0.1100
     28 C23        -6.1492    6.2735    6.2791 C.3       1 <0>        -0.1623
     29 S1         -4.7273    9.4364    8.1275 S.3       1 <0>        -0.7953
     30 H2          0.0732    0.8273   -0.2606 H         1 <0>         0.0540
     31 H3          0.2440   -0.6961    0.6757 H         1 <0>         0.0534
     32 H4          1.4670    0.6078    0.8511 H         1 <0>         0.0573
     33 H5         -0.2598    2.0920    1.8580 H         1 <0>         0.0654
     34 H6         -1.4828    0.7881    1.6826 H         1 <0>         0.0638
     35 H7          1.8145    0.3681    4.4001 H         1 <0>         0.0561
     36 H8          1.5594    1.8993    3.4961 H         1 <0>         0.0583
     37 H9          2.1328    0.4317    2.6333 H         1 <0>         0.0603
     38 H10        -0.3338    2.9561    3.9443 H         1 <0>         0.1244
     39 H11        -1.7807    3.7959    5.7479 H         1 <0>         0.1266
     40 H12        -2.9626   -0.2236    6.6484 H         1 <0>         0.1354
     41 H13        -1.5183   -1.0444    4.8340 H         1 <0>         0.1227
     42 H14        -2.8133    4.4006    7.0471 H         1 <0>         0.1385
     43 H15        -5.9124    4.6495   10.7486 H         1 <0>         0.1385
     44 H16        -7.1465    2.9559   12.0000 H         1 <0>         0.1272
     45 H17        -6.9251    0.5735   11.4404 H         1 <0>         0.1278
     46 H18        -5.4719   -0.1549    9.6273 H         1 <0>         0.1338
     47 H19        -4.0784    5.6543    6.2394 H         1 <0>         0.0772
     48 H20        -4.3302    7.4270    6.0956 H         1 <0>         0.1056
     49 H21        -6.2780    6.1670    5.1919 H         1 <0>         0.0708
     50 H22        -6.7420    7.1284    6.6366 H         1 <0>         0.0705
     51 H23        -6.4902    5.3556    6.7804 H         1 <0>         0.0511
@<TRIPOS>BOND
     1    1    2 1
     2    1   30 1
     3    1   31 1
     4    1   32 1
     5    2    3 1
     6    2   33 1
     7    2   34 1
     8    3    4 1
     9    3    5 1
    10    3    6 1
    11    5   35 1
    12    5   36 1
    13    5   37 1
    14    6   11 ar
    15    6    7 ar
    16    7    8 ar
    17    7   38 1
    18    8    9 ar
    19    8   39 1
    20    9   10 ar
    21    9   12 1
    22   10   11 ar
    23   10   40 1
    24   11   41 1
    25   12   21 ar
    26   12   13 ar
    27   13   14 ar
    28   13   42 1
    29   14   15 ar
    30   14   22 1
    31   15   20 ar
    32   15   16 ar
    33   16   17 ar
    34   16   43 1
    35   17   18 ar
    36   17   44 1
    37   18   19 ar
    38   18   45 1
    39   19   20 ar
    40   19   46 1
    41   20   21 ar
    42   22   26 1
    43   22   23 2
    44   23   24 1
    45   24   25 2
    46   25   29 1
    47   25   26 1
    48   26   27 1
    49   27   28 1
    50   27   47 1
    51   27   48 1
    52   28   49 1
    53   28   50 1
    54   28   51 1
@<TRIPOS>MOLECULE
ZINC18222730
   44    47     0     0     0
SMALL
USER_CHARGES
3-(4-chlorophenyl)-2-methyl-5-(p-tolylsulfanylmethyl)-1H-pyrazolo[1,5-a]pyrimidin-7-one
@<TRIPOS>ATOM
      1 C1          3.7103   -0.7062   -0.0376 C.3       1 <0>        -0.1127
      2 C2          2.3962    0.0313   -0.0211 C.ar      1 <0>        -0.1024
      3 C3          1.2080   -0.6764   -0.0131 C.ar      1 <0>        -0.1017
      4 C4          0.0021   -0.0041    0.0020 C.ar      1 <0>        -0.1003
      5 C5         -0.0168    1.3855    0.0097 C.ar      1 <0>        -0.0858
      6 C6          1.1792    2.0934    0.0020 C.ar      1 <0>        -0.1324
      7 C7          2.3813    1.4143   -0.0135 C.ar      1 <0>        -0.1001
      8 S1         -1.5533    2.2478    0.0216 S.3       1 <0>        -0.0792
      9 C8         -1.0746    3.9975    0.0289 C.3       1 <0>        -0.0482
     10 C9         -2.3124    4.8570    0.0394 C.2       1 <0>         0.2208
     11 C10        -2.6944    5.4862    1.1899 C.2       1 <0>        -0.3822
     12 C11        -3.8498    6.2884    1.1776 C.2       1 <0>         0.5427
     13 O1         -4.2150    6.8677    2.1873 O.3       1 <0>        -0.5751
     14 N1         -4.5494    6.4008    0.0295 N.pl3     1 <0>        -0.3515
     15 C12        -4.1221    5.7424   -1.0922 C.2       1 <0>         0.3537
     16 N2         -3.0320    4.9959   -1.0698 N.2       1 <0>        -0.5731
     17 C13        -5.0829    6.0624   -2.1553 C.2       1 <0>        -0.2854
     18 C14        -6.0196    6.8859   -1.6113 C.2       1 <0>         0.1136
     19 N3         -5.7152    7.1001   -0.2994 N.2       1 <0>        -0.3686
     20 C15        -7.2030    7.4675   -2.3410 C.3       1 <0>        -0.0696
     21 C16        -5.0405    5.5797   -3.5563 C.ar      1 <0>         0.0621
     22 C17        -5.1897    4.2214   -3.8330 C.ar      1 <0>        -0.0933
     23 C18        -5.1543    3.7780   -5.1392 C.ar      1 <0>        -0.1092
     24 C19        -4.9610    4.6780   -6.1733 C.ar      1 <0>        -0.0524
     25 C20        -4.8070    6.0272   -5.9036 C.ar      1 <0>        -0.1115
     26 C21        -4.8456    6.4817   -4.6013 C.ar      1 <0>        -0.1078
     27 Cl1        -4.9108    4.1127   -7.8139 Cl        1 <0>        -0.0929
     28 H1          3.5224   -1.7900   -0.0417 H         1 <0>         0.0634
     29 H2          4.2924   -0.4383    0.8565 H         1 <0>         0.0670
     30 H3          4.2752   -0.4286   -0.9397 H         1 <0>         0.0672
     31 H4          1.2234   -1.7563   -0.0191 H         1 <0>         0.1238
     32 H5         -0.9254   -0.5574    0.0083 H         1 <0>         0.1264
     33 H6          1.1683    3.1733    0.0079 H         1 <0>         0.1239
     34 H7          3.3111    1.9637   -0.0198 H         1 <0>         0.1220
     35 H8         -0.4735    4.2094    0.9254 H         1 <0>         0.0998
     36 H9         -0.4819    4.2193   -0.8708 H         1 <0>         0.1026
     37 H10        -2.1157    5.3727    2.0947 H         1 <0>         0.1347
     38 H11        -7.7871    8.0945   -1.6513 H         1 <0>         0.0671
     39 H12        -7.8363    6.6523   -2.7210 H         1 <0>         0.0717
     40 H13        -6.8494    8.0802   -3.1833 H         1 <0>         0.0717
     41 H14        -5.3361    3.5180   -3.0267 H         1 <0>         0.1262
     42 H15        -5.2735    2.7265   -5.3549 H         1 <0>         0.1251
     43 H16        -4.6561    6.7251   -6.7139 H         1 <0>         0.1248
     44 H17        -4.7247    7.5343   -4.3920 H         1 <0>         0.1255
@<TRIPOS>BOND
     1    1    2 1
     2    1   28 1
     3    1   29 1
     4    1   30 1
     5    2    7 ar
     6    2    3 ar
     7    3    4 ar
     8    3   31 1
     9    4    5 ar
    10    4   32 1
    11    5    6 ar
    12    5    8 1
    13    6    7 ar
    14    6   33 1
    15    7   34 1
    16    8    9 1
    17    9   10 1
    18    9   35 1
    19    9   36 1
    20   10   16 2
    21   10   11 1
    22   11   12 2
    23   11   37 1
    24   12   13 1
    25   12   14 1
    26   14   19 1
    27   14   15 1
    28   15   16 1
    29   15   17 2
    30   17   18 1
    31   17   21 1
    32   18   19 2
    33   18   20 1
    34   20   38 1
    35   20   39 1
    36   20   40 1
    37   21   26 ar
    38   21   22 ar
    39   22   23 ar
    40   22   41 1
    41   23   24 ar
    42   23   42 1
    43   24   25 ar
    44   24   27 1
    45   25   26 ar
    46   25   43 1
    47   26   44 1
@<TRIPOS>MOLECULE
ZINC07489013
   44    47     0     0     0
SMALL
USER_CHARGES

@<TRIPOS>ATOM
      1 C1          1.3721    1.3637   -1.4824 C.3       1 <0>        -0.1078
      2 C2          1.2217   -0.1255   -1.3077 C.ar      1 <0>        -0.0936
      3 C3          1.2673   -0.9568   -2.4125 C.ar      1 <0>        -0.1394
      4 C4          1.1301   -2.3213   -2.2589 C.ar      1 <0>        -0.1057
      5 C5          0.9453   -2.8617   -0.9869 C.ar      1 <0>        -0.0316
      6 C6          0.9002   -2.0188    0.1229 C.ar      1 <0>        -0.0237
      7 C7          1.0442   -0.6564   -0.0426 C.ar      1 <0>        -0.1311
      8 C8          0.7969   -4.3263   -0.8152 C.2       1 <0>         0.0066
      9 C9         -0.0812   -5.0241   -1.5743 C.2       1 <0>        -0.2214
     10 S1          0.1119   -6.7007   -1.0007 S.3       1 <0>         0.0360
     11 C10         1.3556   -6.4339    0.2348 C.ar      1 <0>         0.1604
     12 C11         1.5983   -5.0436    0.1704 C.ar      1 <0>        -0.2929
     13 C12         2.5777   -4.5486    1.0718 C.ar      1 <0>         0.4806
     14 O1          2.8810   -3.2285    1.0934 O.3       1 <0>        -0.6515
     15 N1          3.1890   -5.3850    1.8881 N.ar      1 <0>        -0.6008
     16 C13         2.9177   -6.6894    1.8967 C.ar      1 <0>         0.3966
     17 N2          2.0030   -7.2065    1.0806 N.ar      1 <0>        -0.5519
     18 C14         3.6348   -7.5716    2.8316 C.2       1 <0>        -0.0022
     19 C15         4.5557   -7.0590    3.6681 C.2       1 <0>        -0.0507
     20 C16         5.3866   -7.9567    4.4877 C.ar      1 <0>        -0.0974
     21 C17         5.7591   -9.2116    3.9958 C.ar      1 <0>        -0.0598
     22 C18         6.5370  -10.0477    4.7663 C.ar      1 <0>        -0.1550
     23 C19         6.9513   -9.6461    6.0300 C.ar      1 <0>         0.1280
     24 C20         6.5839   -8.4003    6.5232 C.ar      1 <0>        -0.2137
     25 C21         5.8106   -7.5549    5.7582 C.ar      1 <0>        -0.0565
     26 O2          7.7179  -10.4742    6.7861 O.3       1 <0>        -0.3191
     27 C22         8.1090   -9.9989    8.0757 C.3       1 <0>         0.0273
     28 Cl1         3.2925   -9.2734    2.8550 Cl        1 <0>        -0.0546
     29 H1          2.4266    1.6323   -1.4196 H         1 <0>         0.0644
     30 H2          0.9799    1.6568   -2.4562 H         1 <0>         0.0595
     31 H3          0.8185    1.8793   -0.6976 H         1 <0>         0.0606
     32 H4          1.4101   -0.5371   -3.3973 H         1 <0>         0.1131
     33 H5          1.1655   -2.9693   -3.1221 H         1 <0>         0.1150
     34 H6          0.7569   -2.4317    1.1105 H         1 <0>         0.1195
     35 H7          1.0142   -0.0029    0.8167 H         1 <0>         0.1132
     36 H8         -0.7417   -4.6529   -2.3439 H         1 <0>         0.1799
     37 H9          4.6854   -5.9891    3.7384 H         1 <0>         0.1611
     38 H10         5.4372   -9.5248    3.0136 H         1 <0>         0.1423
     39 H11         6.8250  -11.0172    4.3874 H         1 <0>         0.1303
     40 H12         6.9081   -8.0927    7.5063 H         1 <0>         0.1277
     41 H13         5.5288   -6.5850    6.1408 H         1 <0>         0.1303
     42 H14         8.7160  -10.7554    8.5731 H         1 <0>         0.0974
     43 H15         8.6891   -9.0828    7.9648 H         1 <0>         0.0552
     44 H16         7.2201   -9.7959    8.6731 H         1 <0>         0.0551
@<TRIPOS>BOND
     1    1    2 1
     2    1   29 1
     3    1   30 1
     4    1   31 1
     5    2    7 ar
     6    2    3 ar
     7    3    4 ar
     8    3   32 1
     9    4    5 ar
    10    4   33 1
    11    5    6 ar
    12    5    8 1
    13    6    7 ar
    14    6   34 1
    15    7   35 1
    16    8   12 1
    17    8    9 2
    18    9   10 1
    19    9   36 1
    20   10   11 1
    21   11   17 ar
    22   11   12 ar
    23   12   13 ar
    24   13   14 1
    25   13   15 ar
    26   15   16 ar
    27   16   17 ar
    28   16   18 1
    29   18   19 2
    30   18   28 1
    31   19   20 1
    32   19   37 1
    33   20   25 ar
    34   20   21 ar
    35   21   22 ar
    36   21   38 1
    37   22   23 ar
    38   22   39 1
    39   23   24 ar
    40   23   26 1
    41   24   25 ar
    42   24   40 1
    43   25   41 1
    44   26   27 1
    45   27   42 1
    46   27   43 1
    47   27   44 1
@<TRIPOS>MOLECULE
ZINC63653494
   39    41     0     0     0
SMALL
USER_CHARGES

@<TRIPOS>ATOM
      1 C1         -0.0814    1.5015    0.0178 C.3       1 <0>        -0.0888
      2 C2         -0.0437   -0.0050    0.0066 C.ar      1 <0>        -0.1951
      3 C3         -0.0588   -0.7043    1.1997 C.ar      1 <0>        -0.0497
      4 C4         -0.0248   -2.0849    1.1935 C.ar      1 <0>        -0.2554
      5 C5          0.0245   -2.7716   -0.0129 C.ar      1 <0>         0.2996
      6 C6          0.0396   -2.0662   -1.2101 C.ar      1 <0>        -0.1447
      7 C7          0.0001   -0.6849   -1.1965 C.ar      1 <0>        -0.0453
      8 Br1         0.1074   -2.9954   -2.8557 Br        1 <0>        -0.0748
      9 N1          0.0595   -4.1684   -0.0226 N.2       1 <0>        -1.0647
     10 S1          0.2030   -5.0030    1.4005 S.o2      1 <0>         2.6288
     11 O1          1.4482   -4.6233    1.9702 O.2       1 <0>        -1.0180
     12 O2         -1.0297   -4.8457    2.0897 O.2       1 <0>        -1.0182
     13 C8          0.3366   -6.7116    0.9912 C.2       1 <0>        -0.6595
     14 C9          1.4491   -7.4466    0.7478 C.2       1 <0>        -0.0434
     15 C10         1.3130   -8.7879    0.4427 C.2       1 <0>        -0.1546
     16 C11         0.0709   -9.3286    0.3959 C.2       1 <0>        -0.1293
     17 S2         -0.9579   -7.9257    0.7972 S.3       1 <0>         0.1820
     18 C12        -0.3358  -10.7471    0.0900 C.3       1 <0>         0.0538
     19 H1          0.4550  -11.2648   -0.4529 H         1 <0>         0.1615
     20 C13        -0.6877  -11.4918    1.3657 C.2       1 <0>        -0.1082
     21 C14        -1.9708  -11.8211    1.2018 C.2       1 <0>        -0.0525
     22 N2         -2.4318  -11.3786    0.0110 N.2       1 <0>        -0.1513
     23 N3         -1.5956  -10.7749   -0.6725 N.2       1 <0>        -0.1491
     24 C15        -2.7938  -12.5832    2.2083 C.3       1 <0>        -0.0827
     25 C16         0.2045  -11.7901    2.5429 C.3       1 <0>        -0.0936
     26 H2         -1.1176    1.8392   -0.0025 H         1 <0>         0.0526
     27 H3          0.4033    1.8704    0.9217 H         1 <0>         0.0531
     28 H4          0.4427    1.8846   -0.8578 H         1 <0>         0.0532
     29 H5         -0.0969   -0.1700    2.1375 H         1 <0>         0.1081
     30 H6         -0.0363   -2.6301    2.1257 H         1 <0>         0.1036
     31 H7          0.0072   -0.1359   -2.1265 H         1 <0>         0.1145
     32 H8          2.4274   -6.9910    0.7913 H         1 <0>         0.1482
     33 H9          2.1832   -9.3959    0.2442 H         1 <0>         0.1393
     34 H10        -3.2755  -11.8817    2.8896 H         1 <0>         0.0796
     35 H11        -3.5547  -13.1658    1.6890 H         1 <0>         0.0782
     36 H12        -2.1466  -13.2531    2.7743 H         1 <0>         0.0752
     37 H13         0.1368  -10.9768    3.2655 H         1 <0>         0.0881
     38 H14        -0.1130  -12.7210    3.0128 H         1 <0>         0.0814
     39 H15         1.2352  -11.8883    2.2020 H         1 <0>         0.0781
@<TRIPOS>BOND
     1    1    2 1
     2    1   26 1
     3    1   27 1
     4    1   28 1
     5    2    7 ar
     6    2    3 ar
     7    3    4 ar
     8    3   29 1
     9    4    5 ar
    10    4   30 1
    11    5    6 ar
    12    5    9 1
    13    6    7 ar
    14    6    8 1
    15    7   31 1
    16    9   10 1
    17   10   11 2
    18   10   12 2
    19   10   13 1
    20   13   17 1
    21   13   14 2
    22   14   15 1
    23   14   32 1
    24   15   16 2
    25   15   33 1
    26   16   17 1
    27   16   18 1
    28   18   19 1
    29   18   23 1
    30   18   20 1
    31   20   21 2
    32   20   25 1
    33   21   22 1
    34   21   24 1
    35   22   23 2
    36   24   34 1
    37   24   35 1
    38   24   36 1
    39   25   37 1
    40   25   38 1
    41   25   39 1
@<TRIPOS>MOLECULE
ZINC05432981
   44    48     0     0     0
SMALL
USER_CHARGES
(4-methoxyphenyl)-sulfanyl-BLAHone
@<TRIPOS>ATOM
      1 C1          1.8002   -8.3424    6.9862 C.3       1 <0>         0.0225
      2 O1          1.7000   -6.9482    7.2831 O.3       1 <0>        -0.3155
      3 C2          2.1245   -6.0812    6.3257 C.ar      1 <0>         0.1369
      4 C3          2.0552   -4.7137    6.5488 C.ar      1 <0>        -0.1416
      5 C4          2.4865   -3.8326    5.5771 C.ar      1 <0>        -0.0517
      6 C5          2.9893   -4.3155    4.3762 C.ar      1 <0>         0.1044
      7 C6          3.0526   -5.6843    4.1511 C.ar      1 <0>        -0.0506
      8 C7          2.6263   -6.5644    5.1259 C.ar      1 <0>        -0.1986
      9 N1          3.4274   -3.4217    3.3894 N.am      1 <0>        -0.4653
     10 C8          2.5540   -2.9796    2.4694 C.2       1 <0>         0.5875
     11 O2          1.3959   -3.3550    2.4950 O.2       1 <0>        -0.5089
     12 C9          3.0065   -2.0340    1.4233 C.2       1 <0>        -0.2440
     13 C10         2.2091   -1.4402    0.3435 C.2       1 <0>        -0.0364
     14 C11         2.8737   -0.6074   -0.4826 C.2       1 <0>        -0.2205
     15 S1          4.5330   -0.5788    0.1392 S.3       1 <0>         0.2774
     16 C12         4.3444   -1.6612    1.4675 C.2       1 <0>         0.0912
     17 N2          5.2049   -2.1404    2.4299 N.pl3     1 <0>        -0.4299
     18 C13         4.7517   -3.0135    3.3849 C.2       1 <0>         0.4131
     19 N3          5.7589   -3.3108    4.1717 N.2       1 <0>        -0.3146
     20 N4          6.8865   -2.6168    3.7161 N.2       1 <0>        -0.3289
     21 C14         6.5357   -1.9164    2.6653 C.2       1 <0>         0.3988
     22 S2          7.5917   -0.8695    1.7200 S.3       1 <0>        -0.7416
     23 C15         2.3375    0.1201   -1.6759 C.3       1 <0>        -0.0335
     24 C16         1.0300    0.8257   -1.2921 C.3       1 <0>        -0.1155
     25 C17        -0.1280   -0.1356   -1.5407 C.3       1 <0>        -0.1189
     26 C18         0.3173   -1.5732   -1.2794 C.3       1 <0>        -0.1268
     27 C19         0.7258   -1.7479    0.1791 C.3       1 <0>        -0.0595
     28 H1          1.4254   -8.9268    7.8394 H         1 <0>         0.1008
     29 H2          2.8522   -8.6024    6.7975 H         1 <0>         0.0581
     30 H3          1.2000   -8.5712    6.0932 H         1 <0>         0.0568
     31 H4          1.6642   -4.3382    7.4828 H         1 <0>         0.1381
     32 H5          2.4326   -2.7680    5.7509 H         1 <0>         0.1318
     33 H6          3.4394   -6.0605    3.2155 H         1 <0>         0.1272
     34 H7          2.6799   -7.6291    4.9529 H         1 <0>         0.1345
     35 H8          3.0736    0.8650   -2.0125 H         1 <0>         0.0758
     36 H9          2.1450   -0.5976   -2.4870 H         1 <0>         0.0884
     37 H10         1.0635    1.1070   -0.2292 H         1 <0>         0.0685
     38 H11         0.9069    1.7295   -1.9069 H         1 <0>         0.0685
     39 H12        -0.9613    0.1122   -0.8668 H         1 <0>         0.0621
     40 H13        -0.4617   -0.0454   -2.5850 H         1 <0>         0.0614
     41 H14        -0.5120   -2.2603   -1.5033 H         1 <0>         0.0634
     42 H15         1.1766   -1.8136   -1.9227 H         1 <0>         0.0734
     43 H16         0.5300   -2.7851    0.4887 H         1 <0>         0.0866
     44 H17         0.1373   -1.0611    0.8052 H         1 <0>         0.0751
@<TRIPOS>BOND
     1    1    2 1
     2    1   28 1
     3    1   29 1
     4    1   30 1
     5    2    3 1
     6    3    8 ar
     7    3    4 ar
     8    4    5 ar
     9    4   31 1
    10    5    6 ar
    11    5   32 1
    12    6    7 ar
    13    6    9 1
    14    7    8 ar
    15    7   33 1
    16    8   34 1
    17    9   18 1
    18    9   10 am
    19   10   11 2
    20   10   12 1
    21   12   16 2
    22   12   13 1
    23   13   27 1
    24   13   14 2
    25   14   15 1
    26   14   23 1
    27   15   16 1
    28   16   17 1
    29   17   21 1
    30   17   18 1
    31   18   19 2
    32   19   20 1
    33   20   21 2
    34   21   22 1
    35   23   24 1
    36   23   35 1
    37   23   36 1
    38   24   25 1
    39   24   37 1
    40   24   38 1
    41   25   26 1
    42   25   39 1
    43   25   40 1
    44   26   27 1
    45   26   41 1
    46   26   42 1
    47   27   43 1
    48   27   44 1
@<TRIPOS>MOLECULE
ZINC23779304
   40    43     0     0     0
SMALL
USER_CHARGES
7-chloro-2-[(Z)-1-chloro-2-(5-methoxy-2,3-dihydro-1,4-benzodioxin-7-yl)vinyl]-3H-quinazolin-4-one
@<TRIPOS>ATOM
      1 C1          0.4272   -2.5420   -0.3485 C.3       1 <0>         0.0216
      2 O1          1.5974   -1.7461   -0.5464 O.3       1 <0>        -0.3068
      3 C2          1.4411   -0.3960   -0.4997 C.ar      1 <0>         0.1310
      4 C3          0.1906    0.1449   -0.2689 C.ar      1 <0>        -0.1868
      5 C4          0.0303    1.5336   -0.2208 C.ar      1 <0>        -0.0100
      6 C5          1.1372    2.3676   -0.4078 C.ar      1 <0>        -0.1301
      7 C6          2.3863    1.8193   -0.6399 C.ar      1 <0>         0.0842
      8 C7          2.5425    0.4378   -0.6854 C.ar      1 <0>         0.0169
      9 O2          3.7657   -0.1170   -0.9075 O.3       1 <0>        -0.2973
     10 C8          4.7716    0.7403   -1.4574 C.3       1 <0>         0.0172
     11 C9          4.7517    2.0639   -0.6810 C.3       1 <0>         0.0175
     12 O3          3.4518    2.6469   -0.8236 O.3       1 <0>        -0.2993
     13 C10        -1.2991    2.1149    0.0197 C.2       1 <0>        -0.0788
     14 C11        -1.4153    3.2764    0.6969 C.2       1 <0>         0.0198
     15 C12        -2.7181    3.9376    0.7987 C.ar      1 <0>         0.4006
     16 N1         -2.8019    5.1173    1.4943 N.ar      1 <0>        -0.6570
     17 C13        -3.9871    5.7599    1.6112 C.ar      1 <0>         0.5173
     18 O4         -4.0792    6.8074    2.2244 O.3       1 <0>        -0.5751
     19 C14        -5.1590    5.1468    0.9701 C.ar      1 <0>        -0.2560
     20 C15        -6.4211    5.7345    1.0348 C.ar      1 <0>        -0.0227
     21 C16        -7.4893    5.1215    0.4184 C.ar      1 <0>        -0.1836
     22 C17        -7.3183    3.9244   -0.2684 C.ar      1 <0>         0.0046
     23 C18        -6.0800    3.3263   -0.3455 C.ar      1 <0>        -0.1366
     24 C19        -4.9801    3.9289    0.2732 C.ar      1 <0>         0.2115
     25 N2         -3.7528    3.3779    0.2155 N.ar      1 <0>        -0.6156
     26 Cl1        -8.6822    3.1745   -1.0372 Cl        1 <0>        -0.0925
     27 Cl2        -0.0204    3.9867    1.4476 Cl        1 <0>        -0.0485
     28 H1          0.6936   -3.6074   -0.4109 H         1 <0>         0.0999
     29 H2         -0.3142   -2.3033   -1.1252 H         1 <0>         0.0583
     30 H3          0.0015   -2.3279    0.6429 H         1 <0>         0.0582
     31 H4         -0.6612   -0.5033   -0.1255 H         1 <0>         0.1422
     32 H5          1.0170    3.4403   -0.3710 H         1 <0>         0.1508
     33 H6          5.7563    0.2598   -1.3596 H         1 <0>         0.1204
     34 H7          4.5566    0.9228   -2.5206 H         1 <0>         0.0757
     35 H8          4.9644    1.8695    0.3806 H         1 <0>         0.0785
     36 H9          5.5164    2.7406   -1.0902 H         1 <0>         0.1223
     37 H10        -2.1987    1.6029   -0.3525 H         1 <0>         0.1665
     38 H11        -6.5609    6.6643    1.5662 H         1 <0>         0.1283
     39 H12        -8.4683    5.5748    0.4684 H         1 <0>         0.1223
     40 H13        -5.9591    2.3962   -0.8810 H         1 <0>         0.1311
@<TRIPOS>BOND
     1    1    2 1
     2    1   28 1
     3    1   29 1
     4    1   30 1
     5    2    3 1
     6    3    8 ar
     7    3    4 ar
     8    4    5 ar
     9    4   31 1
    10    5    6 ar
    11    5   13 1
    12    6    7 ar
    13    6   32 1
    14    7   12 1
    15    7    8 ar
    16    8    9 1
    17    9   10 1
    18   10   11 1
    19   10   33 1
    20   10   34 1
    21   11   12 1
    22   11   35 1
    23   11   36 1
    24   13   14 2
    25   13   37 1
    26   14   15 1
    27   14   27 1
    28   15   25 ar
    29   15   16 ar
    30   16   17 ar
    31   17   18 1
    32   17   19 ar
    33   19   24 ar
    34   19   20 ar
    35   20   21 ar
    36   20   38 1
    37   21   22 ar
    38   21   39 1
    39   22   23 ar
    40   22   26 1
    41   23   24 ar
    42   23   40 1
    43   24   25 ar
@<TRIPOS>MOLECULE
ZINC00693771
   47    50     0     0     0
SMALL
USER_CHARGES

@<TRIPOS>ATOM
      1 C1         -1.6198   -2.4492   -1.8964 C.3       1 <0>        -0.1091
      2 C2         -0.6108   -1.9066   -0.9174 C.ar      1 <0>        -0.0792
      3 C3          0.1003   -0.7606   -1.2223 C.ar      1 <0>        -0.1239
      4 C4          1.0273   -0.2599   -0.3267 C.ar      1 <0>        -0.0800
      5 C5          1.2453   -0.9033    0.8759 C.ar      1 <0>        -0.1091
      6 C6          0.5325   -2.0540    1.1851 C.ar      1 <0>         0.1603
      7 C7         -0.4014   -2.5514    0.2860 C.ar      1 <0>        -0.1010
      8 N1          0.7516   -2.7093    2.4040 N.am      1 <0>        -0.5485
      9 C8          0.3744   -2.1199    3.5595 C.2       1 <0>         0.5628
     10 O1         -0.1557   -1.0241    3.5613 O.2       1 <0>        -0.5187
     11 C9          0.6240   -2.8445    4.8163 C.2       1 <0>        -0.2332
     12 C10         0.2624   -2.3012    6.0489 C.2       1 <0>         0.0730
     13 C11         0.3708   -3.0729    7.2140 C.2       1 <0>         0.0427
     14 C12         1.1047   -2.7505    8.3522 C.2       1 <0>        -0.1520
     15 C13         0.9303   -3.7928    9.2591 C.2       1 <0>        -0.2010
     16 C14         0.1153   -4.7182    8.6867 C.2       1 <0>         0.0156
     17 N2         -0.2363   -4.2929    7.4483 N.pl3     1 <0>        -0.3470
     18 C15        -1.0720   -4.9759    6.5554 C.ar      1 <0>         0.1439
     19 C16        -2.1934   -4.3459    6.0321 C.ar      1 <0>        -0.1137
     20 C17        -3.0155   -5.0212    5.1516 C.ar      1 <0>        -0.1048
     21 C18        -2.7228   -6.3249    4.7910 C.ar      1 <0>        -0.0323
     22 C19        -1.6058   -6.9550    5.3112 C.ar      1 <0>        -0.1003
     23 C20        -0.7774   -6.2821    6.1876 C.ar      1 <0>        -0.0570
     24 Cl1        -3.7589   -7.1714    3.6848 Cl        1 <0>        -0.0739
     25 C21         1.2480   -4.1209    4.7264 C.2       1 <0>         0.4871
     26 O2          1.5044   -4.8371    5.8418 O.3       1 <0>        -0.6161
     27 N3          1.5727   -4.5957    3.5360 N.2       1 <0>        -0.6625
     28 C22         1.3303   -3.9212    2.4148 C.2       1 <0>         0.6661
     29 O3          1.6517   -4.4228    1.3519 O.2       1 <0>        -0.5630
     30 C23         1.8009    0.9888   -0.6633 C.3       1 <0>        -0.1083
     31 H1         -2.5950   -2.0049   -1.6970 H         1 <0>         0.0678
     32 H2         -1.3094   -2.2033   -2.9119 H         1 <0>         0.0651
     33 H3         -1.6850   -3.5319   -1.7886 H         1 <0>         0.0661
     34 H4         -0.0684   -0.2557   -2.1620 H         1 <0>         0.1208
     35 H5          1.9697   -0.5120    1.5748 H         1 <0>         0.1184
     36 H6         -0.9606   -3.4437    0.5256 H         1 <0>         0.1200
     37 H7         -0.1011   -1.2858    6.1056 H         1 <0>         0.1446
     38 H8          1.6973   -1.8603    8.5033 H         1 <0>         0.1379
     39 H9          1.3668   -3.8553   10.2450 H         1 <0>         0.1356
     40 H10        -0.2041   -5.6418    9.1463 H         1 <0>         0.1578
     41 H11        -2.4227   -3.3287    6.3137 H         1 <0>         0.1322
     42 H12        -3.8878   -4.5317    4.7443 H         1 <0>         0.1361
     43 H13        -1.3796   -7.9724    5.0282 H         1 <0>         0.1382
     44 H14         0.0964   -6.7729    6.5900 H         1 <0>         0.1446
     45 H15         1.2549    1.8619   -0.3060 H         1 <0>         0.0686
     46 H16         2.7790    0.9506   -0.1837 H         1 <0>         0.0644
     47 H17         1.9284    1.0571   -1.7437 H         1 <0>         0.0649
@<TRIPOS>BOND
     1    1    2 1
     2    1   31 1
     3    1   32 1
     4    1   33 1
     5    2    7 ar
     6    2    3 ar
     7    3    4 ar
     8    3   34 1
     9    4    5 ar
    10    4   30 1
    11    5    6 ar
    12    5   35 1
    13    6    7 ar
    14    6    8 1
    15    7   36 1
    16    8   28 am
    17    8    9 am
    18    9   10 2
    19    9   11 1
    20   11   12 2
    21   11   25 1
    22   12   13 1
    23   12   37 1
    24   13   17 1
    25   13   14 2
    26   14   15 1
    27   14   38 1
    28   15   16 2
    29   15   39 1
    30   16   17 1
    31   16   40 1
    32   17   18 1
    33   18   23 ar
    34   18   19 ar
    35   19   20 ar
    36   19   41 1
    37   20   21 ar
    38   20   42 1
    39   21   22 ar
    40   21   24 1
    41   22   23 ar
    42   22   43 1
    43   23   44 1
    44   25   26 1
    45   25   27 2
    46   27   28 1
    47   28   29 2
    48   30   45 1
    49   30   46 1
    50   30   47 1
@<TRIPOS>MOLECULE
ZINC07488870
   36    39     0     0     0
SMALL
USER_CHARGES

@<TRIPOS>ATOM
      1 C1          0.1384    1.1565   -0.8695 C.ar      1 <0>        -0.1180
      2 C2          1.3195    1.8679   -0.8345 C.ar      1 <0>        -0.0558
      3 C3          2.3886    1.4028   -0.0639 C.ar      1 <0>        -0.0483
      4 C4          2.2518    0.2187    0.6663 C.ar      1 <0>        -0.0377
      5 C5          1.0649   -0.4816    0.6214 C.ar      1 <0>        -0.0522
      6 C6          0.0104   -0.0148   -0.1441 C.ar      1 <0>        -0.0567
      7 N1          0.9181   -1.7360    1.3934 N.pl3     1 <0>         0.0363
      8 O1          1.8383   -2.1453    2.0623 O.2       1 <0>        -0.1584
      9 O2         -0.1219   -2.3512    1.3552 O.3       1 <0>        -0.1651
     10 C7          3.6537    2.1566   -0.0217 C.2       1 <0>        -0.0744
     11 C8          3.6406    3.4982   -0.1164 C.2       1 <0>         0.0268
     12 C9          4.9069    4.2402   -0.2359 C.ar      1 <0>         0.3851
     13 N2          6.0584    3.5697   -0.2545 N.ar      1 <0>        -0.5998
     14 C10         7.2228    4.1805   -0.3593 C.ar      1 <0>         0.4800
     15 O3          8.3731    3.4655   -0.3751 O.3       1 <0>        -0.6632
     16 C11         7.2557    5.5987   -0.4559 C.ar      1 <0>        -0.2777
     17 C12         8.4293    6.4777   -0.5788 C.2       1 <0>        -0.0426
     18 C13         8.1944    7.7983   -0.6540 C.2       1 <0>        -0.2390
     19 S1          6.4253    7.9603   -0.5710 S.3       1 <0>         0.0768
     20 C14         6.0036    6.2446   -0.4311 C.ar      1 <0>         0.1517
     21 N3          4.8797    5.5668   -0.3288 N.ar      1 <0>        -0.5452
     22 C15         9.4658    8.5958   -0.7715 C.3       1 <0>        -0.0202
     23 C16        10.5777    7.6203   -0.3272 C.3       1 <0>        -0.1178
     24 C17         9.9426    6.2536   -0.6501 C.3       1 <0>        -0.0609
     25 Cl1         2.1309    4.3550   -0.0977 Cl        1 <0>        -0.0497
     26 H1         -0.6903    1.5169   -1.4610 H         1 <0>         0.1483
     27 H2          1.4181    2.7818   -1.4016 H         1 <0>         0.1536
     28 H3          3.0739   -0.1470    1.2637 H         1 <0>         0.1584
     29 H4         -0.9170   -0.5674   -0.1751 H         1 <0>         0.1512
     30 H5          4.5916    1.6319    0.0853 H         1 <0>         0.1715
     31 H6          9.6244    8.9087   -1.8035 H         1 <0>         0.0744
     32 H7          9.4337    9.4623   -0.1111 H         1 <0>         0.0694
     33 H8         11.4873    7.7748   -0.9076 H         1 <0>         0.0764
     34 H9         10.7768    7.7156    0.7403 H         1 <0>         0.0712
     35 H10        10.2490    5.5118    0.0874 H         1 <0>         0.0773
     36 H11        10.2293    5.9318   -1.6512 H         1 <0>         0.0743
@<TRIPOS>BOND
     1    1    6 ar
     2    1    2 ar
     3    1   26 1
     4    2    3 ar
     5    2   27 1
     6    3    4 ar
     7    3   10 1
     8    4    5 ar
     9    4   28 1
    10    5    6 ar
    11    5    7 1
    12    6   29 1
    13    7    8 2
    14    7    9 1
    15   10   11 2
    16   10   30 1
    17   11   12 1
    18   11   25 1
    19   12   21 ar
    20   12   13 ar
    21   13   14 ar
    22   14   15 1
    23   14   16 ar
    24   16   20 ar
    25   16   17 1
    26   17   24 1
    27   17   18 2
    28   18   19 1
    29   18   22 1
    30   19   20 1
    31   20   21 ar
    32   22   23 1
    33   22   31 1
    34   22   32 1
    35   23   24 1
    36   23   33 1
    37   23   34 1
    38   24   35 1
    39   24   36 1
@<TRIPOS>MOLECULE
ZINC63867080
   42    44     0     0     0
SMALL
USER_CHARGES

@<TRIPOS>ATOM
      1 C1          0.5399    1.0334   -0.4013 C.3       1 <0>        -0.1014
      2 C2         -0.4952    0.0524    0.0857 C.2       1 <0>        -0.0291
      3 C3         -1.6644   -0.0762   -0.5594 C.2       1 <0>        -0.2119
      4 S1         -2.5229   -1.3267    0.3776 S.3       1 <0>         0.0216
      5 C4         -1.2887   -1.6437    1.6109 C.ar      1 <0>         0.1575
      6 C5         -0.2359   -0.7688    1.2550 C.ar      1 <0>        -0.2917
      7 C6          0.9117   -0.8183    2.0922 C.ar      1 <0>         0.4833
      8 O1          1.9750   -0.0171    1.8427 O.3       1 <0>        -0.6599
      9 N1          0.9314   -1.6515    3.1147 N.ar      1 <0>        -0.5860
     10 C7         -0.0933   -2.4542    3.3928 C.ar      1 <0>         0.4034
     11 N2         -1.1959   -2.4442    2.6511 N.ar      1 <0>        -0.5656
     12 C8         -0.0076   -3.3650    4.5539 C.2       1 <0>         0.0214
     13 C9          0.1971   -2.8588    5.8045 C.2       1 <0>        -0.0003
     14 C10         0.1797   -1.4097    6.0202 C.ar      1 <0>        -0.0254
     15 C11        -0.6228   -0.5889    5.2154 C.ar      1 <0>        -0.0929
     16 C12        -0.6376    0.7715    5.4197 C.ar      1 <0>        -0.0935
     17 C13         0.1429    1.3363    6.4244 C.ar      1 <0>        -0.1027
     18 C14         0.9457    0.5244    7.2303 C.ar      1 <0>         0.1382
     19 C15         0.9613   -0.8406    7.0359 C.ar      1 <0>        -0.1627
     20 O2          1.7072    1.0803    8.2106 O.3       1 <0>        -0.3088
     21 C16         2.5035    0.1911    8.9963 C.3       1 <0>         0.0264
     22 S2          0.1190    3.0794    6.6804 S.3       1 <0>        -0.0971
     23 C17        -1.0392    3.6914    5.4256 C.3       1 <0>        -0.1518
     24 C18        -0.1395   -4.7785    4.3664 C.1       1 <0>         0.2735
     25 N3         -0.2441   -5.8999    4.2176 N.1       1 <0>        -0.4218
     26 C19        -2.1395    0.6616   -1.7845 C.3       1 <0>        -0.0513
     27 H1          1.1962    0.5424   -1.1198 H         1 <0>         0.0605
     28 H2          0.0436    1.8775   -0.8802 H         1 <0>         0.0496
     29 H3          1.1286    1.3900    0.4440 H         1 <0>         0.0904
     30 H4          0.3720   -3.5264    6.6353 H         1 <0>         0.1461
     31 H5         -1.2291   -1.0245    4.4349 H         1 <0>         0.1343
     32 H6         -1.2559    1.4028    4.7989 H         1 <0>         0.1269
     33 H7          1.5773   -1.4695    7.6615 H         1 <0>         0.1371
     34 H8          3.0599    0.7622    9.7395 H         1 <0>         0.0981
     35 H9          1.8566   -0.5273    9.4998 H         1 <0>         0.0546
     36 H10         3.2014   -0.3398    8.3489 H         1 <0>         0.0574
     37 H11        -0.6732    3.4270    4.4335 H         1 <0>         0.0852
     38 H12        -2.0185    3.2396    5.5839 H         1 <0>         0.0817
     39 H13        -1.1220    4.7753    5.5053 H         1 <0>         0.1067
     40 H14        -1.8443    0.1108   -2.6776 H         1 <0>         0.0653
     41 H15        -3.2254    0.7520   -1.7559 H         1 <0>         0.0628
     42 H16        -1.6926    1.6555   -1.8063 H         1 <0>         0.0722
@<TRIPOS>BOND
     1    1    2 1
     2    1   27 1
     3    1   28 1
     4    1   29 1
     5    2    6 1
     6    2    3 2
     7    3    4 1
     8    3   26 1
     9    4    5 1
    10    5   11 ar
    11    5    6 ar
    12    6    7 ar
    13    7    8 1
    14    7    9 ar
    15    9   10 ar
    16   10   11 ar
    17   10   12 1
    18   12   13 2
    19   12   24 1
    20   13   14 1
    21   13   30 1
    22   14   19 ar
    23   14   15 ar
    24   15   16 ar
    25   15   31 1
    26   16   17 ar
    27   16   32 1
    28   17   18 ar
    29   17   22 1
    30   18   19 ar
    31   18   20 1
    32   19   33 1
    33   20   21 1
    34   21   34 1
    35   21   35 1
    36   21   36 1
    37   22   23 1
    38   23   37 1
    39   23   38 1
    40   23   39 1
    41   24   25 3
    42   26   40 1
    43   26   41 1
    44   26   42 1
@<TRIPOS>MOLECULE
ZINC13088133
   45    48     0     0     0
SMALL
USER_CHARGES
(E)-3-[4-(6,7,8,9-tetrahydrodibenzofuran-2-yloxysulfonyl)phenyl]prop-2-enoic acid
@<TRIPOS>ATOM
      1 C1          5.3611    3.8340   -2.3630 C.ar      1 <0>        -0.1403
      2 C2          4.8566    2.6547   -1.8570 C.ar      1 <0>        -0.0117
      3 C3          3.5293    2.3209   -2.0628 C.ar      1 <0>        -0.7193
      4 C4          2.6997    3.1634   -2.7822 C.ar      1 <0>        -0.0100
      5 C5          3.1878    4.3487   -3.2901 C.ar      1 <0>        -0.1457
      6 C6          4.5277    4.6935   -3.0862 C.ar      1 <0>         0.0356
      7 C7          5.0583    5.9539   -3.6301 C.2       1 <0>        -0.1435
      8 C8          4.2513    6.7804   -4.3271 C.2       1 <0>        -0.1139
      9 C9          4.7785    8.0328   -4.8676 C.2       1 <0>         0.4702
     10 O1          5.9443    8.3293   -4.6887 O.co2     1 <0>        -0.6280
     11 S1          2.8941    0.8119   -1.4116 S.o2      1 <0>         2.6760
     12 O2          4.0044   -0.0602   -1.2505 O.2       1 <0>        -0.9335
     13 O3          1.7659    0.4702   -2.2050 O.2       1 <0>        -0.9542
     14 O4          2.3691    1.1103   -0.0145 O.3       1 <0>        -0.6564
     15 C10         1.1869    1.7820    0.0003 C.ar      1 <0>         0.0514
     16 C11        -0.0126    1.0758    0.0080 C.ar      1 <0>        -0.0742
     17 C12        -1.2183    1.7421    0.0173 C.ar      1 <0>        -0.0858
     18 C13        -1.2466    3.1307    0.0301 C.ar      1 <0>         0.0681
     19 C14        -0.0362    3.8468    0.0234 C.ar      1 <0>        -0.1040
     20 C15         1.1795    3.1633    0.0082 C.ar      1 <0>        -0.0640
     21 C16        -0.4231    5.2559    0.0359 C.2       1 <0>        -0.1646
     22 C17        -1.7665    5.2878    0.0489 C.2       1 <0>         0.0364
     23 O5         -2.2494    4.0349    0.0440 O.3       1 <0>        -0.1843
     24 C18        -2.5711    6.5676    0.0682 C.3       1 <0>        -0.0413
     25 C19        -1.6497    7.7159    0.4940 C.3       1 <0>        -0.1170
     26 C20        -0.3750    7.6905   -0.3545 C.3       1 <0>        -0.1256
     27 C21         0.4680    6.4693    0.0346 C.3       1 <0>        -0.0545
     28 H1          6.3970    4.0932   -2.2017 H         1 <0>         0.1369
     29 H2          5.4988    1.9900   -1.2984 H         1 <0>         0.1396
     30 H3          1.6662    2.8938   -2.9422 H         1 <0>         0.1364
     31 H4          2.5381    5.0072   -3.8475 H         1 <0>         0.1378
     32 H5          6.0936    6.2172   -3.4712 H         1 <0>         0.1346
     33 H6          3.2160    6.5171   -4.4860 H         1 <0>         0.1104
     34 H7          0.0021   -0.0041    0.0020 H         1 <0>         0.1524
     35 H8         -2.1428    1.1839    0.0189 H         1 <0>         0.1484
     36 H9          2.1102    3.7111    0.0022 H         1 <0>         0.1462
     37 H10        -2.9672    6.7661   -0.9277 H         1 <0>         0.0941
     38 H11        -3.3916    6.4736    0.7795 H         1 <0>         0.0888
     39 H12        -2.1633    8.6664    0.3495 H         1 <0>         0.0816
     40 H13        -1.3881    7.6008    1.5459 H         1 <0>         0.0704
     41 H14        -0.6414    7.6278   -1.4096 H         1 <0>         0.0719
     42 H15         0.1983    8.6005   -0.1773 H         1 <0>         0.0778
     43 H16         0.8886    6.6159    1.0295 H         1 <0>         0.0785
     44 H17         1.2712    6.3332   -0.6896 H         1 <0>         0.0826
     45 O6          3.9716    8.8593   -5.5646 O.co2     1 <0>        -0.7545
@<TRIPOS>BOND
     1    1    6 ar
     2    1    2 ar
     3    1   28 1
     4    2    3 ar
     5    2   29 1
     6    3    4 ar
     7    3   11 1
     8    4    5 ar
     9    4   30 1
    10    5    6 ar
    11    5   31 1
    12    6    7 1
    13    7    8 2
    14    7   32 1
    15    8    9 1
    16    8   33 1
    17    9   10 2
    18    9   45 1
    19   11   12 2
    20   11   13 2
    21   11   14 1
    22   14   15 1
    23   15   20 ar
    24   15   16 ar
    25   16   17 ar
    26   16   34 1
    27   17   18 ar
    28   17   35 1
    29   18   23 1
    30   18   19 ar
    31   19   20 ar
    32   19   21 1
    33   20   36 1
    34   21   27 1
    35   21   22 2
    36   22   23 1
    37   22   24 1
    38   24   25 1
    39   24   37 1
    40   24   38 1
    41   25   26 1
    42   25   39 1
    43   25   40 1
    44   26   27 1
    45   26   41 1
    46   26   42 1
    47   27   43 1
    48   27   44 1
@<TRIPOS>MOLECULE
ZINC27516839
   46    50     0     0     0
SMALL
USER_CHARGES
methyl-[(4-methylphenoxy)methyl]BLAHone
@<TRIPOS>ATOM
      1 C1         -8.3678   -3.3962   -6.4010 C.3       1 <0>        -0.1089
      2 C2         -8.0015   -2.8129   -5.0607 C.ar      1 <0>        -0.1328
      3 C3         -7.7619   -3.6494   -3.9862 C.ar      1 <0>        -0.0804
      4 C4         -7.4260   -3.1172   -2.7564 C.ar      1 <0>        -0.1487
      5 C5         -7.3291   -1.7421   -2.6001 C.ar      1 <0>         0.1356
      6 C6         -7.5756   -0.9047   -3.6783 C.ar      1 <0>        -0.2061
      7 C7         -7.9052   -1.4421   -4.9075 C.ar      1 <0>        -0.0796
      8 O1         -6.9988   -1.2161   -1.3913 O.3       1 <0>        -0.3049
      9 C8         -6.9174    0.2079   -1.3038 C.3       1 <0>         0.1663
     10 C9         -6.5424    0.6043    0.1009 C.2       1 <0>         0.2179
     11 N1         -5.2976    0.7628    0.5482 N.2       1 <0>        -0.5479
     12 C10        -5.3273    1.1100    1.8180 C.2       1 <0>         0.3741
     13 C11        -4.2608    1.4113    2.8026 C.2       1 <0>        -0.2689
     14 C12        -2.8111    1.4025    2.6103 C.2       1 <0>        -0.0144
     15 C13        -2.0498    1.7170    3.6804 C.2       1 <0>        -0.2293
     16 S1         -3.2088    2.0381    4.9825 S.3       1 <0>         0.0645
     17 C14        -4.7073    1.7469    4.0786 C.2       1 <0>         0.1900
     18 N2         -6.0395    1.7920    4.3871 N.2       1 <0>        -0.5917
     19 C15        -6.9753    1.5115    3.4590 C.2       1 <0>         0.6630
     20 O2         -8.1515    1.5610    3.7638 O.3       1 <0>        -0.5533
     21 N3         -6.6336    1.1779    2.2042 N.pl3     1 <0>        -0.3710
     22 N4         -7.3891    0.8451    1.0684 N.2       1 <0>        -0.2940
     23 C16        -0.5548    1.7789    3.7452 C.3       1 <0>        -0.0215
     24 C17         0.0131    1.0711    2.5064 C.3       1 <0>        -0.1068
     25 C18        -0.7288    1.5792    1.2668 C.3       1 <0>        -0.0911
     26 H1         -0.7436    2.6790    1.2778 H         1 <0>         0.0707
     27 C19        -2.1663    1.0578    1.2708 C.3       1 <0>        -0.0534
     28 C20        -0.0127    1.0858    0.0080 C.3       1 <0>        -0.1454
     29 H2         -8.3950   -4.4935   -6.3283 H         1 <0>         0.0625
     30 H3         -7.6183   -3.0967   -7.1484 H         1 <0>         0.0652
     31 H4         -9.3574   -3.0242   -6.7047 H         1 <0>         0.0651
     32 H5         -7.8371   -4.7198   -4.1085 H         1 <0>         0.1267
     33 H6         -7.2386   -3.7710   -1.9175 H         1 <0>         0.1302
     34 H7         -7.5053    0.1663   -3.5580 H         1 <0>         0.1299
     35 H8         -8.0922   -0.7908   -5.7485 H         1 <0>         0.1230
     36 H9         -6.1534    0.5752   -2.0048 H         1 <0>         0.0914
     37 H10        -7.8925    0.6474   -1.5609 H         1 <0>         0.0863
     38 H11        -0.2316    2.8303    3.7594 H         1 <0>         0.0709
     39 H12        -0.2062    1.2758    4.6592 H         1 <0>         0.0712
     40 H13         1.0865    1.2940    2.4167 H         1 <0>         0.0657
     41 H14        -0.1287   -0.0150    2.6074 H         1 <0>         0.0654
     42 H15        -2.1672   -0.0336    1.1335 H         1 <0>         0.0727
     43 H16        -2.7363    1.5301    0.4571 H         1 <0>         0.0817
     44 H17        -0.5448    1.4502   -0.8831 H         1 <0>         0.0544
     45 H18         0.0022   -0.0141    0.0020 H         1 <0>         0.0540
     46 H19         1.0193    1.4666    0.0002 H         1 <0>         0.0515
@<TRIPOS>BOND
     1    1    2 1
     2    1   29 1
     3    1   30 1
     4    1   31 1
     5    2    7 ar
     6    2    3 ar
     7    3    4 ar
     8    3   32 1
     9    4    5 ar
    10    4   33 1
    11    5    6 ar
    12    5    8 1
    13    6    7 ar
    14    6   34 1
    15    7   35 1
    16    8    9 1
    17    9   10 1
    18    9   36 1
    19    9   37 1
    20   10   22 2
    21   10   11 1
    22   11   12 2
    23   12   21 1
    24   12   13 1
    25   13   17 2
    26   13   14 1
    27   14   27 1
    28   14   15 2
    29   15   16 1
    30   15   23 1
    31   16   17 1
    32   17   18 1
    33   18   19 2
    34   19   20 1
    35   19   21 1
    36   21   22 1
    37   23   24 1
    38   23   38 1
    39   23   39 1
    40   24   25 1
    41   24   40 1
    42   24   41 1
    43   25   26 1
    44   25   27 1
    45   25   28 1
    46   27   42 1
    47   27   43 1
    48   28   44 1
    49   28   45 1
    50   28   46 1
@<TRIPOS>MOLECULE
ZINC39369566
   34    36     0     0     0
SMALL
USER_CHARGES

@<TRIPOS>ATOM
      1 C1         -0.0169    1.3945    0.0097 C.ar      1 <0>        -0.0611
      2 C2          1.1693    2.0965    0.0022 C.ar      1 <0>        -0.1172
      3 C3          2.3783    1.4202   -0.0135 C.ar      1 <0>        -0.0149
      4 C4          2.4048    0.0350   -0.0212 C.ar      1 <0>        -0.1121
      5 C5          1.2264   -0.6802   -0.0138 C.ar      1 <0>        -0.0662
      6 C6          0.0021   -0.0041    0.0020 C.ar      1 <0>        -0.0364
      7 C7         -1.2599   -0.7604    0.0100 C.2       1 <0>         0.1546
      8 N1         -2.4698   -0.2726    0.0184 N.2       1 <0>        -0.3087
      9 N2         -3.4387   -1.2706    0.0235 N.2       1 <0>        -0.3127
     10 C8         -2.9263   -2.4582    0.0187 C.2       1 <0>         0.1004
     11 C9         -1.4228   -2.2676    0.0035 C.3       1 <0>        -0.1029
     12 H1         -0.9726   -2.7066    0.8938 H         1 <0>         0.1386
     13 C10        -0.8225   -2.8613   -1.2448 C.2       1 <0>        -0.0987
     14 C11         0.1632   -3.7441   -1.1516 C.2       1 <0>        -0.0882
     15 C12         0.7516   -4.3260   -2.3750 C.ar      1 <0>         0.2285
     16 C13         1.7880   -5.2626   -2.2895 C.ar      1 <0>        -0.3077
     17 C14         2.3058   -5.7791   -3.4629 C.ar      1 <0>         0.1278
     18 N3          1.8098   -5.3756   -4.6226 N.ar      1 <0>        -0.5550
     19 C15         0.8293   -4.4883   -4.6737 C.ar      1 <0>         0.5565
     20 O1          0.3512   -4.1029   -5.8812 O.3       1 <0>        -0.6670
     21 N4          0.3005   -3.9718   -3.5779 N.ar      1 <0>        -0.5615
     22 C16         3.4228   -6.7899   -3.4225 C.3       1 <0>         0.5195
     23 F1          2.8830   -8.0796   -3.3708 F         1 <0>        -0.1773
     24 F2          4.2109   -6.6601   -4.5711 F         1 <0>        -0.1682
     25 F3          4.2113   -6.5686   -2.2884 F         1 <0>        -0.1777
     26 Cl1         3.8673    2.3126   -0.0241 Cl        1 <0>        -0.0662
     27 H2         -0.9586    1.9230    0.0260 H         1 <0>         0.1439
     28 H3          1.1562    3.1764    0.0081 H         1 <0>         0.1396
     29 H4          3.3509   -0.4856   -0.0334 H         1 <0>         0.1421
     30 H5          1.2485   -1.7599   -0.0205 H         1 <0>         0.1420
     31 H6         -3.4618   -3.3961    0.0210 H         1 <0>         0.2053
     32 H7         -1.1948   -2.5681   -2.2153 H         1 <0>         0.1405
     33 H8          0.5355   -4.0373   -0.1811 H         1 <0>         0.1298
     34 H9          2.1742   -5.5741   -1.3303 H         1 <0>         0.1306
@<TRIPOS>BOND
     1    1    6 ar
     2    1    2 ar
     3    1   27 1
     4    2    3 ar
     5    2   28 1
     6    3    4 ar
     7    3   26 1
     8    4    5 ar
     9    4   29 1
    10    5    6 ar
    11    5   30 1
    12    6    7 1
    13    7   11 1
    14    7    8 2
    15    8    9 1
    16    9   10 2
    17   10   11 1
    18   10   31 1
    19   11   12 1
    20   11   13 1
    21   13   14 2
    22   13   32 1
    23   14   15 1
    24   14   33 1
    25   15   21 ar
    26   15   16 ar
    27   16   17 ar
    28   16   34 1
    29   17   18 ar
    30   17   22 1
    31   18   19 ar
    32   19   20 1
    33   19   21 ar
    34   22   23 1
    35   22   24 1
    36   22   25 1
@<TRIPOS>MOLECULE
ZINC46360035
   49    51     0     0     0
SMALL
USER_CHARGES

@<TRIPOS>ATOM
      1 C1          0.3603   -0.4753    0.9569 C.3       1 <0>        -0.1553
      2 C2         -0.1318   -1.7985    0.3671 C.3       1 <0>         0.0888
      3 N1          0.5536   -2.0522   -0.9025 N.pl3     1 <0>        -0.4915
      4 C3          0.0171   -1.5906   -2.0528 C.2       1 <0>         0.5021
      5 O1         -1.1374   -0.9016   -2.0473 O.3       1 <0>        -0.6092
      6 C4          0.6994   -1.8493   -3.2606 C.ar      1 <0>        -0.2236
      7 C5          0.2048   -1.4019   -4.4940 C.ar      1 <0>        -0.0088
      8 C6          0.8917   -1.6708   -5.6384 C.ar      1 <0>        -0.2009
      9 C7          2.0946   -2.3934   -5.6014 C.ar      1 <0>        -0.0796
     10 C8          2.6075   -2.8486   -4.3976 C.ar      1 <0>        -0.0736
     11 C9          1.9147   -2.5812   -3.2082 C.ar      1 <0>         0.2164
     12 N2          2.3738   -3.0012   -2.0208 N.2       1 <0>        -0.5533
     13 C10         1.7100   -2.7359   -0.9061 C.2       1 <0>         0.5041
     14 S1          2.3449   -3.2905    0.5840 S.2       1 <0>        -0.7044
     15 C11         2.8219   -2.6722   -6.8610 C.2       1 <0>         0.5654
     16 O2          4.0353   -2.7403   -6.8597 O.2       1 <0>        -0.5039
     17 N3          2.1381   -2.8505   -8.0086 N.am      1 <0>        -0.5427
     18 C12         0.6923   -2.6169   -8.0437 C.3       1 <0>         0.0562
     19 C13         0.4113   -1.2531   -8.6778 C.3       1 <0>        -0.1794
     20 C14         2.8087   -3.2585   -9.1658 C.ar      1 <0>         0.1658
     21 C15         2.0918   -3.5534  -10.3183 C.ar      1 <0>        -0.1674
     22 C16         2.7572   -3.9557  -11.4597 C.ar      1 <0>        -0.0637
     23 C17         4.1358   -4.0649  -11.4560 C.ar      1 <0>        -0.1510
     24 C18         4.8526   -3.7721  -10.3102 C.ar      1 <0>        -0.0612
     25 C19         4.1937   -3.3642   -9.1670 C.ar      1 <0>        -0.1766
     26 C20         6.3547   -3.8925  -10.3107 C.3       1 <0>        -0.1128
     27 C21         1.9802   -4.2763  -12.7105 C.3       1 <0>        -0.1110
     28 H1          1.4351   -0.5316    1.1292 H         1 <0>         0.0677
     29 H2          0.1460    0.3351    0.2601 H         1 <0>         0.0509
     30 H3         -0.1497   -0.2866    1.9016 H         1 <0>         0.0686
     31 H4          0.0825   -2.6089    1.0639 H         1 <0>         0.1164
     32 H5         -1.2066   -1.7422    0.1949 H         1 <0>         0.0864
     33 H6         -0.7197   -0.8452   -4.5363 H         1 <0>         0.1368
     34 H7          0.5064   -1.3243   -6.5859 H         1 <0>         0.1519
     35 H8          3.5331   -3.4046   -4.3755 H         1 <0>         0.1437
     36 H9          0.2123   -3.3977   -8.6337 H         1 <0>         0.0824
     37 H10         0.2968   -2.6338   -7.0282 H         1 <0>         0.1313
     38 H11         0.8913   -0.4723   -8.0879 H         1 <0>         0.0677
     39 H12         0.8069   -1.2362   -9.6934 H         1 <0>         0.0655
     40 H13        -0.6644   -1.0793   -8.7040 H         1 <0>         0.0770
     41 H14         1.0151   -3.4687  -10.3218 H         1 <0>         0.1243
     42 H15         4.6537   -4.3800  -12.3497 H         1 <0>         0.1167
     43 H16         4.7544   -3.1313   -8.2738 H         1 <0>         0.1838
     44 H17         6.7954   -2.9417  -10.6104 H         1 <0>         0.0693
     45 H18         6.6987   -4.1529   -9.3097 H         1 <0>         0.0690
     46 H19         6.6566   -4.6701  -11.0124 H         1 <0>         0.0636
     47 H20         1.8710   -3.3738  -13.3118 H         1 <0>         0.0686
     48 H21         2.5133   -5.0336  -13.2853 H         1 <0>         0.0652
     49 H22         0.9942   -4.6536  -12.4390 H         1 <0>         0.0644
@<TRIPOS>BOND
     1    1    2 1
     2    1   28 1
     3    1   29 1
     4    1   30 1
     5    2    3 1
     6    2   31 1
     7    2   32 1
     8    3   13 1
     9    3    4 1
    10    4    5 1
    11    4    6 2
    12    6   11 ar
    13    6    7 ar
    14    7    8 ar
    15    7   33 1
    16    8    9 ar
    17    8   34 1
    18    9   10 ar
    19    9   15 1
    20   10   11 ar
    21   10   35 1
    22   11   12 2
    23   12   13 1
    24   13   14 2
    25   15   16 2
    26   15   17 am
    27   17   18 1
    28   17   20 1
    29   18   19 1
    30   18   36 1
    31   18   37 1
    32   19   38 1
    33   19   39 1
    34   19   40 1
    35   20   25 ar
    36   20   21 ar
    37   21   22 ar
    38   21   41 1
    39   22   23 ar
    40   22   27 1
    41   23   24 ar
    42   23   42 1
    43   24   25 ar
    44   24   26 1
    45   25   43 1
    46   26   44 1
    47   26   45 1
    48   26   46 1
    49   27   47 1
    50   27   48 1
    51   27   49 1
@<TRIPOS>MOLECULE
ZINC17162104
   41    44     0     0     0
SMALL
USER_CHARGES

@<TRIPOS>ATOM
      1 C1          3.4456   -3.9283    7.5055 C.ar      1 <0>        -0.1243
      2 C2          3.4896   -2.5461    7.4861 C.ar      1 <0>        -0.1042
      3 C3          3.2976   -1.8641    6.3009 C.ar      1 <0>        -0.0984
      4 C4          3.0604   -2.5683    5.1266 C.ar      1 <0>        -0.1157
      5 C5          3.0173   -3.9570    5.1498 C.ar      1 <0>        -0.1167
      6 C6          3.2098   -4.6324    6.3387 C.ar      1 <0>        -0.1013
      7 S1          2.8143   -1.7022    3.6120 S.3       1 <0>         0.0984
      8 C7          2.8105   -2.9722    2.3906 C.2       1 <0>        -0.0694
      9 C8          3.9284   -3.4824    1.7543 C.2       1 <0>        -0.1340
     10 C9          3.4880   -4.4583    0.8726 C.2       1 <0>        -0.1762
     11 C10         2.0991   -4.5168    0.9969 C.2       1 <0>         0.0367
     12 O1          1.7234   -3.6088    1.9276 O.3       1 <0>        -0.1043
     13 C11         1.2502   -5.3641    0.2921 C.2       1 <0>         0.0566
     14 C12         0.0541   -4.8688   -0.2464 C.2       1 <0>        -0.2013
     15 C13        -0.9148   -5.7394   -0.8110 C.2       1 <0>         0.4884
     16 O2         -0.7018   -7.0730   -0.8402 O.3       1 <0>        -0.6305
     17 N1         -2.0298   -5.2278   -1.3080 N.2       1 <0>        -0.6567
     18 C14        -2.2738   -3.9207   -1.2962 C.2       1 <0>         0.6678
     19 O3         -3.3218   -3.5184   -1.7708 O.2       1 <0>        -0.5571
     20 N2         -1.4145   -3.0250   -0.7830 N.am      1 <0>        -0.5521
     21 C15        -0.2452   -3.4305   -0.2417 C.2       1 <0>         0.5545
     22 O4          0.5391   -2.6279    0.2316 O.2       1 <0>        -0.4947
     23 C16        -1.7358   -1.6610   -0.8040 C.ar      1 <0>         0.1622
     24 C17        -2.5641   -1.1266    0.1737 C.ar      1 <0>        -0.0866
     25 C18        -2.8789    0.2180    0.1511 C.ar      1 <0>        -0.1011
     26 C19        -2.3698    1.0323   -0.8453 C.ar      1 <0>        -0.0344
     27 C20        -1.5444    0.5020   -1.8212 C.ar      1 <0>        -0.1020
     28 C21        -1.2217   -0.8408   -1.7993 C.ar      1 <0>        -0.0905
     29 Cl1        -2.7678    2.7219   -0.8713 Cl        1 <0>        -0.0773
     30 H1          3.6002   -4.4593    8.4332 H         1 <0>         0.1242
     31 H2          3.6740   -1.9995    8.3992 H         1 <0>         0.1276
     32 H3          3.3314   -0.7848    6.2866 H         1 <0>         0.1282
     33 H4          2.8329   -4.5075    4.2390 H         1 <0>         0.1212
     34 H5          3.1765   -5.7117    6.3574 H         1 <0>         0.1257
     35 H6          4.9521   -3.1778    1.9144 H         1 <0>         0.1595
     36 H7          4.1016   -5.0573    0.2160 H         1 <0>         0.1622
     37 H8          1.5125   -6.4034    0.1597 H         1 <0>         0.1804
     38 H9         -2.9622   -1.7618    0.9511 H         1 <0>         0.1318
     39 H10        -3.5231    0.6342    0.9115 H         1 <0>         0.1367
     40 H11        -1.1490    1.1394   -2.5982 H         1 <0>         0.1361
     41 H12        -0.5740   -1.2533   -2.5587 H         1 <0>         0.1306
@<TRIPOS>BOND
     1    1    6 ar
     2    1    2 ar
     3    1   30 1
     4    2    3 ar
     5    2   31 1
     6    3    4 ar
     7    3   32 1
     8    4    5 ar
     9    4    7 1
    10    5    6 ar
    11    5   33 1
    12    6   34 1
    13    7    8 1
    14    8   12 1
    15    8    9 2
    16    9   10 1
    17    9   35 1
    18   10   11 2
    19   10   36 1
    20   11   12 1
    21   11   13 1
    22   13   14 2
    23   13   37 1
    24   14   21 1
    25   14   15 1
    26   15   16 1
    27   15   17 2
    28   17   18 1
    29   18   19 2
    30   18   20 am
    31   20   21 am
    32   20   23 1
    33   21   22 2
    34   23   28 ar
    35   23   24 ar
    36   24   25 ar
    37   24   38 1
    38   25   26 ar
    39   25   39 1
    40   26   27 ar
    41   26   29 1
    42   27   28 ar
    43   27   40 1
    44   28   41 1
@<TRIPOS>MOLECULE
ZINC04520397
   35    37     0     0     0
SMALL
USER_CHARGES
2-fluoro-N-[(6-methylbenzothiazol-2-yl)thiocarbamoyl]benzamide
@<TRIPOS>ATOM
      1 C1         -1.2880   -0.7829    0.0107 C.3       1 <0>        -0.1146
      2 C2          0.0021   -0.0041    0.0020 C.ar      1 <0>        -0.0590
      3 C3         -0.0167    1.3833    0.0096 C.ar      1 <0>        -0.1115
      4 C4          1.1417    2.1152    0.0025 C.ar      1 <0>        -0.0473
      5 C5          2.4018    1.4734   -0.0131 C.ar      1 <0>         0.0785
      6 C6          2.3822    0.0600   -0.0205 C.ar      1 <0>        -0.1318
      7 C7          1.2167   -0.6648   -0.0132 C.ar      1 <0>        -0.0702
      8 S1          4.1127   -0.3421   -0.0392 S.3       1 <0>        -0.0017
      9 C8          4.7328    1.3342   -0.0362 C.2       1 <0>         0.3447
     10 N1          3.6270    2.0417   -0.0218 N.2       1 <0>        -0.4370
     11 N2          6.0452    1.7744   -0.0468 N.pl3     1 <0>        -0.5687
     12 C9          6.3129    3.0953   -0.0422 C.2       1 <0>         0.4666
     13 S2          5.0300    4.2287   -0.0233 S.2       1 <0>        -0.3437
     14 N3          7.5907    3.5239   -0.0525 N.am      1 <0>        -0.6332
     15 C10         7.8584    4.8448   -0.0479 C.2       1 <0>         0.5342
     16 O1          6.9476    5.6495   -0.0345 O.2       1 <0>        -0.3911
     17 C11         9.2579    5.3143   -0.0592 C.ar      1 <0>        -0.1770
     18 C12        10.3076    4.3925   -0.0689 C.ar      1 <0>        -0.0618
     19 C13        11.6121    4.8377   -0.0844 C.ar      1 <0>        -0.1354
     20 C14        11.8854    6.1951   -0.0801 C.ar      1 <0>        -0.0559
     21 C15        10.8541    7.1150   -0.0653 C.ar      1 <0>        -0.1601
     22 C16         9.5398    6.6842   -0.0545 C.ar      1 <0>         0.1689
     23 F1          8.5318    7.5836   -0.0391 F         1 <0>        -0.1092
     24 H1         -1.6093   -0.9652   -1.0148 H         1 <0>         0.0768
     25 H2         -1.1341   -1.7353    0.5179 H         1 <0>         0.0706
     26 H3         -2.0539   -0.2115    0.5353 H         1 <0>         0.0731
     27 H4         -0.9661    1.8981    0.0169 H         1 <0>         0.1354
     28 H5          1.0919    3.1940    0.0085 H         1 <0>         0.1375
     29 H6          1.2481   -1.7443   -0.0189 H         1 <0>         0.1332
     30 H7          6.7721    1.1322   -0.0575 H         1 <0>         0.4174
     31 H8          8.3176    2.8818   -0.0632 H         1 <0>         0.4084
     32 H9         10.0974    3.3332   -0.0678 H         1 <0>         0.1324
     33 H10        12.4237    4.1253   -0.0957 H         1 <0>         0.1402
     34 H11        12.9099    6.5368   -0.0881 H         1 <0>         0.1428
     35 H12        11.0748    8.1722   -0.0617 H         1 <0>         0.1484
@<TRIPOS>BOND
     1    1    2 1
     2    1   24 1
     3    1   25 1
     4    1   26 1
     5    2    7 ar
     6    2    3 ar
     7    3    4 ar
     8    3   27 1
     9    4    5 ar
    10    4   28 1
    11    5   10 1
    12    5    6 ar
    13    6    7 ar
    14    6    8 1
    15    7   29 1
    16    8    9 1
    17    9   10 2
    18    9   11 1
    19   11   12 1
    20   11   30 1
    21   12   13 2
    22   12   14 1
    23   14   15 am
    24   14   31 1
    25   15   16 2
    26   15   17 1
    27   17   22 ar
    28   17   18 ar
    29   18   19 ar
    30   18   32 1
    31   19   20 ar
    32   19   33 1
    33   20   21 ar
    34   20   34 1
    35   21   22 ar
    36   21   35 1
    37   22   23 1
@<TRIPOS>MOLECULE
ZINC09229916
   39    40     0     0     0
SMALL
USER_CHARGES
N-(3-butanoylaminophenyl)-2,4-dichloro-benzamide
@<TRIPOS>ATOM
      1 C1          1.3512    5.8252   -1.5047 C.3       1 <0>        -0.1545
      2 C2          0.0437    5.0307   -1.5188 C.3       1 <0>        -0.1102
      3 C3          0.1979    3.7794   -0.6520 C.3       1 <0>        -0.1406
      4 C4         -1.0899    2.9968   -0.6659 C.2       1 <0>         0.5121
      5 O1         -2.0378    3.4002   -1.3061 O.2       1 <0>        -0.5192
      6 N1         -1.1902    1.8516    0.0376 N.am      1 <0>        -0.6757
      7 C5         -2.4173    1.1839    0.1162 C.ar      1 <0>         0.1622
      8 C6         -2.4511   -0.2034    0.1862 C.ar      1 <0>        -0.1567
      9 C7         -3.6621   -0.8633    0.2639 C.ar      1 <0>        -0.0810
     10 C8         -4.8435   -0.1467    0.2726 C.ar      1 <0>        -0.1316
     11 C9         -4.8167    1.2405    0.2033 C.ar      1 <0>         0.1628
     12 C10        -3.6013    1.9067    0.1300 C.ar      1 <0>        -0.1447
     13 N2         -6.0127    1.9651    0.2122 N.am      1 <0>        -0.6669
     14 C11        -7.0535    1.5387    0.9548 C.2       1 <0>         0.5564
     15 O2         -6.9825    0.4812    1.5503 O.2       1 <0>        -0.4885
     16 C12        -8.2801    2.3561    1.0452 C.ar      1 <0>        -0.1298
     17 C13        -8.3649    3.5716    0.3623 C.ar      1 <0>        -0.0604
     18 C14        -9.5123    4.3302    0.4505 C.ar      1 <0>        -0.1133
     19 C15       -10.5812    3.8899    1.2147 C.ar      1 <0>         0.0021
     20 C16       -10.5046    2.6867    1.8948 C.ar      1 <0>        -0.1124
     21 C17        -9.3632    1.9142    1.8098 C.ar      1 <0>         0.0277
     22 Cl1        -9.2709    0.4016    2.6567 Cl        1 <0>        -0.0122
     23 Cl2       -12.0225    4.8519    1.3201 Cl        1 <0>        -0.0435
     24 H1          1.2413    6.7166   -2.1222 H         1 <0>         0.0597
     25 H2          1.5870    6.1186   -0.4818 H         1 <0>         0.0554
     26 H3          2.1567    5.2063   -1.9000 H         1 <0>         0.0556
     27 H4         -0.1921    4.7373   -2.5417 H         1 <0>         0.0705
     28 H5         -0.7618    5.6495   -1.1234 H         1 <0>         0.0698
     29 H6          0.4337    4.0728    0.3710 H         1 <0>         0.0982
     30 H7          1.0034    3.1605   -1.0473 H         1 <0>         0.0974
     31 H8         -0.4116    1.4902    0.4893 H         1 <0>         0.4132
     32 H9         -1.5294   -0.7663    0.1796 H         1 <0>         0.1275
     33 H10        -3.6857   -1.9417    0.3175 H         1 <0>         0.1319
     34 H11        -5.7888   -0.6656    0.3331 H         1 <0>         0.1414
     35 H12        -3.5776    2.9853    0.0802 H         1 <0>         0.1372
     36 H13        -6.0933    2.7746   -0.3162 H         1 <0>         0.4106
     37 H14        -7.5330    3.9163   -0.2341 H         1 <0>         0.1456
     38 H15        -9.5787    5.2699   -0.0775 H         1 <0>         0.1499
     39 H16       -11.3410    2.3490    2.4887 H         1 <0>         0.1538
@<TRIPOS>BOND
     1    1    2 1
     2    1   24 1
     3    1   25 1
     4    1   26 1
     5    2    3 1
     6    2   27 1
     7    2   28 1
     8    3    4 1
     9    3   29 1
    10    3   30 1
    11    4    5 2
    12    4    6 am
    13    6    7 1
    14    6   31 1
    15    7   12 ar
    16    7    8 ar
    17    8    9 ar
    18    8   32 1
    19    9   10 ar
    20    9   33 1
    21   10   11 ar
    22   10   34 1
    23   11   12 ar
    24   11   13 1
    25   12   35 1
    26   13   14 am
    27   13   36 1
    28   14   15 2
    29   14   16 1
    30   16   21 ar
    31   16   17 ar
    32   17   18 ar
    33   17   37 1
    34   18   19 ar
    35   18   38 1
    36   19   20 ar
    37   19   23 1
    38   20   21 ar
    39   20   39 1
    40   21   22 1
@<TRIPOS>MOLECULE
ZINC34791228
   53    55     0     0     0
SMALL
USER_CHARGES

@<TRIPOS>ATOM
      1 C1         -0.0869    1.5301   -4.2544 C.3       1 <0>        -0.1477
      2 C2          0.5069    1.6687   -2.8512 C.3       1 <0>        -0.0914
      3 C3          1.0956    0.3494   -2.4223 C.ar      1 <0>        -0.0740
      4 C4          0.3117   -0.5727   -1.7540 C.ar      1 <0>        -0.0736
      5 C5          0.8516   -1.7827   -1.3606 C.ar      1 <0>        -0.1147
      6 C6          2.1754   -2.0711   -1.6358 C.ar      1 <0>        -0.1044
      7 C7          2.9589   -1.1496   -2.3046 C.ar      1 <0>        -0.1153
      8 C8          2.4177    0.0590   -2.7019 C.ar      1 <0>        -0.0615
      9 C9          3.2704    1.0616   -3.4358 C.3       1 <0>        -0.0960
     10 C10         3.9448    1.9932   -2.4267 C.3       1 <0>        -0.1475
     11 C11         4.4020   -1.4638   -2.6041 C.3       1 <0>         0.1286
     12 N1          4.7524   -2.7585   -2.0150 N.am      1 <0>        -0.5121
     13 C12         5.1559   -2.8207   -0.7181 C.2       1 <0>         0.5126
     14 C13         5.4939   -4.0517   -0.1552 C.2       1 <0>        -0.2350
     15 C14         5.4124   -5.2284   -0.9391 C.2       1 <0>         0.0872
     16 C15         4.9985   -5.1350   -2.2270 C.2       1 <0>        -0.2424
     17 C16         4.6665   -3.8723   -2.7594 C.2       1 <0>         0.5443
     18 O1          4.2986   -3.7899   -3.9197 O.2       1 <0>        -0.5227
     19 C17         4.8609   -6.3353   -3.1263 C.3       1 <0>        -0.0467
     20 C18         5.6467   -7.5198   -2.5674 C.3       1 <0>        -0.1209
     21 C19         5.2513   -7.7117   -1.0983 C.3       1 <0>        -0.1192
     22 C20         5.7992   -6.5329   -0.2960 C.3       1 <0>        -0.0924
     23 C21         5.9218   -4.1251    1.2094 C.1       1 <0>         0.2729
     24 N2          6.2612   -4.1833    2.2919 N.1       1 <0>        -0.4338
     25 N3          5.2309   -1.6794    0.0325 N.pl3     1 <0>        -0.8317
     26 C22        -1.1313   -0.2584   -1.4541 C.3       1 <0>        -0.1202
     27 H1          0.6967    1.2375   -4.9533 H         1 <0>         0.0565
     28 H2         -0.8678    0.7697   -4.2449 H         1 <0>         0.0563
     29 H3         -0.5127    2.4843   -4.5646 H         1 <0>         0.0594
     30 H4          1.2879    2.4291   -2.8606 H         1 <0>         0.0751
     31 H5         -0.2767    1.9613   -2.1523 H         1 <0>         0.0762
     32 H6          0.2394   -2.5028   -0.8380 H         1 <0>         0.1232
     33 H7          2.5975   -3.0163   -1.3278 H         1 <0>         0.1157
     34 H8          4.0327    0.5374   -4.0122 H         1 <0>         0.0732
     35 H9          2.6445    1.6472   -4.1091 H         1 <0>         0.0816
     36 H10         3.1865    2.4501   -1.7909 H         1 <0>         0.0598
     37 H11         4.6385    1.4208   -1.8110 H         1 <0>         0.0500
     38 H12         4.4898    2.7725   -2.9595 H         1 <0>         0.0630
     39 H13         4.5486   -1.5041   -3.6835 H         1 <0>         0.1260
     40 H14         5.0385   -0.6873   -2.1798 H         1 <0>         0.0984
     41 H15         3.8082   -6.6071   -3.2040 H         1 <0>         0.0710
     42 H16         5.2413   -6.0873   -4.1172 H         1 <0>         0.0766
     43 H17         5.4059   -8.4199   -3.1331 H         1 <0>         0.0712
     44 H18         6.7154   -7.3170   -2.6366 H         1 <0>         0.0666
     45 H19         4.1652   -7.7423   -1.0111 H         1 <0>         0.0694
     46 H20         5.6769   -8.6419   -0.7218 H         1 <0>         0.0717
     47 H21         6.8860   -6.6030   -0.2511 H         1 <0>         0.0895
     48 H22         5.3955   -6.5683    0.7159 H         1 <0>         0.0805
     49 H23         4.9159   -0.8375   -0.3322 H         1 <0>         0.4118
     50 H24         5.5989   -1.7120    0.9293 H         1 <0>         0.4242
     51 H25        -1.7564   -0.5979   -2.2800 H         1 <0>         0.0728
     52 H26        -1.4313   -0.7676   -0.5382 H         1 <0>         0.0664
     53 H27        -1.2500    0.8177   -1.3271 H         1 <0>         0.0717
@<TRIPOS>BOND
     1    1    2 1
     2    1   27 1
     3    1   28 1
     4    1   29 1
     5    2    3 1
     6    2   30 1
     7    2   31 1
     8    3    8 ar
     9    3    4 ar
    10    4    5 ar
    11    4   26 1
    12    5    6 ar
    13    5   32 1
    14    6    7 ar
    15    6   33 1
    16    7    8 ar
    17    7   11 1
    18    8    9 1
    19    9   10 1
    20    9   34 1
    21    9   35 1
    22   10   36 1
    23   10   37 1
    24   10   38 1
    25   11   12 1
    26   11   39 1
    27   11   40 1
    28   12   17 am
    29   12   13 1
    30   13   14 2
    31   13   25 1
    32   14   15 1
    33   14   23 1
    34   15   22 1
    35   15   16 2
    36   16   17 1
    37   16   19 1
    38   17   18 2
    39   19   20 1
    40   19   41 1
    41   19   42 1
    42   20   21 1
    43   20   43 1
    44   20   44 1
    45   21   22 1
    46   21   45 1
    47   21   46 1
    48   22   47 1
    49   22   48 1
    50   23   24 3
    51   25   49 1
    52   25   50 1
    53   26   51 1
    54   26   52 1
    55   26   53 1
@<TRIPOS>MOLECULE
ZINC40662173
   41    43     0     0     0
SMALL
USER_CHARGES

@<TRIPOS>ATOM
      1 C1         -1.2810    0.3517    0.6363 C.3       1 <0>         0.1176
      2 N1         -0.0116   -0.0112    0.0012 N.pl3     1 <0>        -0.6498
      3 C2          1.2543    0.4423    0.5826 C.3       1 <0>         0.1823
      4 C3          1.7472   -0.5810    1.5731 C.ar      1 <0>        -0.1053
      5 C4          1.3683   -0.4972    2.8998 C.ar      1 <0>        -0.1055
      6 C5          1.8204   -1.4358    3.8084 C.ar      1 <0>        -0.1225
      7 C6          2.6512   -2.4584    3.3901 C.ar      1 <0>        -0.1175
      8 C7          3.0294   -2.5427    2.0632 C.ar      1 <0>        -0.1199
      9 C8          2.5738   -1.6066    1.1538 C.ar      1 <0>        -0.0922
     10 C9         -0.0084   -0.7856   -1.1528 C.ar      1 <0>         0.3619
     11 C10         0.0402   -0.1825   -2.4111 C.ar      1 <0>         0.1454
     12 C11         0.0417   -1.0071   -3.5377 C.ar      1 <0>         0.0721
     13 N2         -0.0029   -2.3276   -3.3704 N.ar      1 <0>        -0.4811
     14 C12        -0.0480   -2.8560   -2.1646 C.ar      1 <0>         0.2575
     15 N3         -0.0460   -2.1137   -1.0755 N.ar      1 <0>        -0.4871
     16 S1          0.1012   -0.3117   -5.1556 S.3       1 <0>         0.0382
     17 C13         0.2394   -1.7117   -6.2165 C.ar      1 <0>        -0.1213
     18 C14        -0.8983   -2.2642   -6.7917 C.ar      1 <0>        -0.0427
     19 C15        -0.7868   -3.3610   -7.6232 C.ar      1 <0>        -0.1197
     20 C16         0.4566   -3.9103   -7.8833 C.ar      1 <0>        -0.0033
     21 C17         1.5916   -3.3621   -7.3118 C.ar      1 <0>        -0.1196
     22 C18         1.4870   -2.2618   -6.4841 C.ar      1 <0>        -0.0433
     23 Cl1         0.5927   -5.2900   -8.9282 Cl        1 <0>        -0.0602
     24 N4          0.0859    1.2149   -2.5400 N.pl3     1 <0>        -0.8493
     25 H1         -1.5938    1.3357    0.2869 H         1 <0>         0.0426
     26 H2         -2.0411   -0.3849    0.3760 H         1 <0>         0.0583
     27 H3         -1.1524    0.3743    1.7184 H         1 <0>         0.0615
     28 H4          1.9934    0.5674   -0.2087 H         1 <0>         0.0714
     29 H5          1.1006    1.3946    1.0901 H         1 <0>         0.0843
     30 H6          0.7192    0.3018    3.2266 H         1 <0>         0.1180
     31 H7          1.5249   -1.3699    4.8451 H         1 <0>         0.1202
     32 H8          3.0050   -3.1913    4.1001 H         1 <0>         0.1198
     33 H9          3.6787   -3.3415    1.7365 H         1 <0>         0.1189
     34 H10         2.8663   -1.6746    0.1164 H         1 <0>         0.1102
     35 H11        -0.0839   -3.9308   -2.0653 H         1 <0>         0.1926
     36 H12        -1.8689   -1.8364   -6.5885 H         1 <0>         0.1397
     37 H13        -1.6708   -3.7909   -8.0706 H         1 <0>         0.1405
     38 H14         2.5606   -3.7931   -7.5163 H         1 <0>         0.1400
     39 H15         2.3735   -1.8317   -6.0419 H         1 <0>         0.1378
     40 H16         0.1603    1.7727   -1.7499 H         1 <0>         0.4071
     41 H17         0.0430    1.6226   -3.4191 H         1 <0>         0.4025
@<TRIPOS>BOND
     1    1    2 1
     2    1   25 1
     3    1   26 1
     4    1   27 1
     5    2    3 1
     6    2   10 1
     7    3    4 1
     8    3   28 1
     9    3   29 1
    10    4    9 ar
    11    4    5 ar
    12    5    6 ar
    13    5   30 1
    14    6    7 ar
    15    6   31 1
    16    7    8 ar
    17    7   32 1
    18    8    9 ar
    19    8   33 1
    20    9   34 1
    21   10   15 ar
    22   10   11 ar
    23   11   12 ar
    24   11   24 1
    25   12   13 ar
    26   12   16 1
    27   13   14 ar
    28   14   15 ar
    29   14   35 1
    30   16   17 1
    31   17   22 ar
    32   17   18 ar
    33   18   19 ar
    34   18   36 1
    35   19   20 ar
    36   19   37 1
    37   20   21 ar
    38   20   23 1
    39   21   22 ar
    40   21   38 1
    41   22   39 1
    42   24   40 1
    43   24   41 1
@<TRIPOS>MOLECULE
ZINC59158976
   34    35     0     0     0
SMALL
USER_CHARGES

@<TRIPOS>ATOM
      1 C1         -0.0167    1.3788    0.0096 C.ar      1 <0>        -0.1243
      2 C2          1.1695    2.0899    0.0021 C.ar      1 <0>        -0.0981
      3 C3          2.3774    1.4209   -0.0134 C.ar      1 <0>        -0.0975
      4 C4          2.4001    0.0314   -0.0211 C.ar      1 <0>        -0.1014
      5 C5          1.2062   -0.6798   -0.0130 C.ar      1 <0>        -0.1380
      6 C6          0.0021   -0.0041    0.0020 C.ar      1 <0>        -0.0996
      7 S1          3.9390   -0.8266   -0.0415 S.3       1 <0>        -0.0243
      8 C7          3.4652   -2.5776   -0.0459 C.3       1 <0>        -0.1510
      9 C8          4.7054   -3.4335   -0.0632 C.2       1 <0>         0.5510
     10 O1          5.8013   -2.9134   -0.0717 O.2       1 <0>        -0.4730
     11 N1          4.5970   -4.7769   -0.0693 N.am      1 <0>        -0.5832
     12 N2          5.7499   -5.5727   -0.0854 N.2       1 <0>        -0.1982
     13 C9          5.6455   -6.8664   -0.0912 C.2       1 <0>         0.1046
     14 C10         6.8584   -7.7035   -0.1081 C.ar      1 <0>        -0.0810
     15 C11         6.7504   -9.0960   -0.1203 C.ar      1 <0>        -0.0454
     16 C12         7.8900   -9.8738   -0.1366 C.ar      1 <0>        -0.1083
     17 C13         9.1411   -9.2790   -0.1405 C.ar      1 <0>        -0.0564
     18 C14         9.2603   -7.9022   -0.1281 C.ar      1 <0>        -0.1458
     19 C15         8.1264   -7.1066   -0.1180 C.ar      1 <0>         0.1652
     20 O2          8.2430   -5.7534   -0.1116 O.3       1 <0>        -0.4698
     21 Br1         7.7433  -11.7590   -0.1530 Br        1 <0>        -0.0397
     22 H1         -0.9599    1.9047    0.0260 H         1 <0>         0.1262
     23 H2          1.1511    3.1697    0.0081 H         1 <0>         0.1299
     24 H3          3.3033    1.9769   -0.0200 H         1 <0>         0.1298
     25 H4          1.2201   -1.7597   -0.0189 H         1 <0>         0.1200
     26 H5         -0.9262   -0.5561    0.0079 H         1 <0>         0.1260
     27 H6          2.8835   -2.7989    0.8489 H         1 <0>         0.1218
     28 H7          2.8651   -2.7894   -0.9309 H         1 <0>         0.1218
     29 H8          3.7207   -5.1928   -0.0625 H         1 <0>         0.3871
     30 H9          4.6699   -7.3295   -0.0836 H         1 <0>         0.1253
     31 H10         5.7767   -9.5631   -0.1166 H         1 <0>         0.1429
     32 H11        10.0283   -9.8948   -0.1530 H         1 <0>         0.1411
     33 H12        10.2392   -7.4458   -0.1309 H         1 <0>         0.1443
     34 H13         8.2860   -5.3666    0.7736 H         1 <0>         0.3978
@<TRIPOS>BOND
     1    1    6 ar
     2    1    2 ar
     3    1   22 1
     4    2    3 ar
     5    2   23 1
     6    3    4 ar
     7    3   24 1
     8    4    5 ar
     9    4    7 1
    10    5    6 ar
    11    5   25 1
    12    6   26 1
    13    7    8 1
    14    8    9 1
    15    8   27 1
    16    8   28 1
    17    9   10 2
    18    9   11 am
    19   11   12 1
    20   11   29 1
    21   12   13 2
    22   13   14 1
    23   13   30 1
    24   14   19 ar
    25   14   15 ar
    26   15   16 ar
    27   15   31 1
    28   16   17 ar
    29   16   21 1
    30   17   18 ar
    31   17   32 1
    32   18   19 ar
    33   18   33 1
    34   19   20 1
    35   20   34 1
@<TRIPOS>MOLECULE
ZINC00729499
   56    60     0     0     0
SMALL
USER_CHARGES
(4-isopropylphenyl)-(2-thienyl)BLAHone
@<TRIPOS>ATOM
      1 C1          0.1228    2.6754   -0.9815 C.3       1 <0>        -0.1441
      2 C2         -0.0219    1.5200    0.0109 C.3       1 <0>        -0.0570
      3 C3         -0.8380    0.3959   -0.6304 C.3       1 <0>        -0.1434
      4 C4         -0.7262    2.0078    1.2506 C.ar      1 <0>        -0.0744
      5 C5         -2.0000    2.5368    1.1589 C.ar      1 <0>        -0.1186
      6 C6         -2.6479    2.9803    2.2967 C.ar      1 <0>        -0.0877
      7 C7         -2.0183    2.9031    3.5250 C.ar      1 <0>        -0.0913
      8 C8         -0.7424    2.3789    3.6159 C.ar      1 <0>        -0.1007
      9 C9         -0.0963    1.9314    2.4788 C.ar      1 <0>        -0.1230
     10 C10        -2.7231    3.3899    4.7648 C.3       1 <0>         0.2778
     11 H1         -3.7131    3.7461    4.4802 H         1 <0>         0.0951
     12 C11        -1.9428    4.5504    5.3338 C.2       1 <0>        -0.2928
     13 C12        -1.2282    4.5378    6.4723 C.2       1 <0>         0.2602
     14 C13        -0.4923    5.7837    6.9354 C.3       1 <0>        -0.1059
     15 C14        -0.0352    6.6005    5.7283 C.3       1 <0>         0.0104
     16 H2          0.6350    6.0037    5.1097 H         1 <0>         0.1019
     17 C15        -1.2835    6.9822    4.9236 C.3       1 <0>        -0.1518
     18 C16        -2.0099    5.7253    4.5482 C.2       1 <0>         0.4004
     19 O1         -2.6792    5.7153    3.5337 O.2       1 <0>        -0.4645
     20 C17         0.6734    7.8466    6.1935 C.2       1 <0>        -0.1414
     21 C18         1.9361    8.2607    5.9263 C.2       1 <0>        -0.1497
     22 C19         2.3791    9.4531    6.4670 C.2       1 <0>        -0.1568
     23 C20         1.5376   10.1732    7.2486 C.2       1 <0>        -0.1699
     24 S1          0.0649    9.1642    7.2330 S.3       1 <0>         0.0388
     25 N1         -1.1068    3.4660    7.2963 N.pl3     1 <0>        -0.6856
     26 C21        -0.8277    2.1697    6.8798 C.ar      1 <0>         0.1136
     27 C22         0.3432    1.5167    7.2235 C.ar      1 <0>        -0.1140
     28 C23         0.5357    0.2081    6.8142 C.ar      1 <0>        -0.1218
     29 C24        -0.4339   -0.4405    6.0713 C.ar      1 <0>        -0.1057
     30 C25        -1.5979    0.2170    5.7121 C.ar      1 <0>        -0.1223
     31 C26        -1.7833    1.5336    6.1017 C.ar      1 <0>         0.1733
     32 N2         -2.8810    2.2725    5.6710 N.pl3     1 <0>        -0.7678
     33 H3          0.7042    3.4762   -0.5246 H         1 <0>         0.0547
     34 H4          0.6322    2.3226   -1.8782 H         1 <0>         0.0572
     35 H5         -0.8651    3.0506   -1.2488 H         1 <0>         0.0568
     36 H6          0.9660    1.1448    0.2782 H         1 <0>         0.0746
     37 H7         -0.3285    0.0431   -1.5271 H         1 <0>         0.0571
     38 H8         -0.9410   -0.4272    0.0766 H         1 <0>         0.0548
     39 H9         -1.8259    0.7711   -0.8977 H         1 <0>         0.0564
     40 H10        -2.4904    2.6005    0.1988 H         1 <0>         0.1176
     41 H11        -3.6448    3.3895    2.2257 H         1 <0>         0.1192
     42 H12        -0.2506    2.3186    4.5755 H         1 <0>         0.1154
     43 H13         0.9005    1.5219    2.5498 H         1 <0>         0.1144
     44 H14         0.3769    5.4922    7.5250 H         1 <0>         0.0941
     45 H15        -1.1596    6.3884    7.5496 H         1 <0>         0.0945
     46 H16        -1.0101    7.4791    4.1000 H         1 <0>         0.0898
     47 H17        -1.9338    7.6143    5.5284 H         1 <0>         0.1023
     48 H18         2.5865    7.6675    5.3005 H         1 <0>         0.1332
     49 H19         3.3807    9.8057    6.2701 H         1 <0>         0.1348
     50 H20         1.7116   11.1150    7.7478 H         1 <0>         0.1864
     51 H21        -1.2233    3.6162    8.2475 H         1 <0>         0.4057
     52 H22         1.0994    2.0230    7.8051 H         1 <0>         0.1263
     53 H23         1.4473   -0.3084    7.0759 H         1 <0>         0.1261
     54 H24        -0.2822   -1.4664    5.7698 H         1 <0>         0.1243
     55 H25        -2.3543   -0.2915    5.1329 H         1 <0>         0.1250
     56 H26        -3.7675    2.0315    5.9823 H         1 <0>         0.3983
@<TRIPOS>BOND
     1    1    2 1
     2    1   33 1
     3    1   34 1
     4    1   35 1
     5    2    3 1
     6    2    4 1
     7    2   36 1
     8    3   37 1
     9    3   38 1
    10    3   39 1
    11    4    9 ar
    12    4    5 ar
    13    5    6 ar
    14    5   40 1
    15    6    7 ar
    16    6   41 1
    17    7    8 ar
    18    7   10 1
    19    8    9 ar
    20    8   42 1
    21    9   43 1
    22   10   11 1
    23   10   32 1
    24   10   12 1
    25   12   18 1
    26   12   13 2
    27   13   14 1
    28   13   25 1
    29   14   15 1
    30   14   44 1
    31   14   45 1
    32   15   16 1
    33   15   17 1
    34   15   20 1
    35   17   18 1
    36   17   46 1
    37   17   47 1
    38   18   19 2
    39   20   24 1
    40   20   21 2
    41   21   22 1
    42   21   48 1
    43   22   23 2
    44   22   49 1
    45   23   24 1
    46   23   50 1
    47   25   26 1
    48   25   51 1
    49   26   31 ar
    50   26   27 ar
    51   27   28 ar
    52   27   52 1
    53   28   29 ar
    54   28   53 1
    55   29   30 ar
    56   29   54 1
    57   30   31 ar
    58   30   55 1
    59   31   32 1
    60   32   56 1
@<TRIPOS>MOLECULE
ZINC00729675
   53    58     0     0     0
SMALL
USER_CHARGES
2-naphthyl-(2-thienyl)BLAHone
@<TRIPOS>ATOM
      1 C1          0.6492   12.6036   -3.3792 C.ar      1 <0>        -0.1173
      2 C2         -0.4559   12.2789   -4.1640 C.ar      1 <0>        -0.1211
      3 C3         -1.4466   11.4795   -3.6828 C.ar      1 <0>        -0.1023
      4 C4         -1.3571   10.9720   -2.3753 C.ar      1 <0>        -0.0522
      5 C5         -2.3601   10.1435   -1.8436 C.ar      1 <0>        -0.0760
      6 C6         -2.2397    9.6709   -0.5731 C.ar      1 <0>        -0.0862
      7 C7         -1.1374   10.0003    0.2137 C.ar      1 <0>        -0.0973
      8 C8         -0.1445   10.7958   -0.2693 C.ar      1 <0>        -0.1142
      9 C9         -0.2336   11.3025   -1.5771 C.ar      1 <0>        -0.0489
     10 C10         0.7695   12.1310   -2.1087 C.ar      1 <0>        -0.1095
     11 C11        -3.3176    8.7833   -0.0062 C.3       1 <0>         0.2767
     12 H1         -4.1032    8.6755   -0.7540 H         1 <0>         0.0967
     13 C12        -2.7208    7.4222    0.2601 C.2       1 <0>        -0.2939
     14 C13        -2.4782    6.8906    1.4706 C.2       1 <0>         0.2616
     15 C14        -1.8749    5.5016    1.5949 C.3       1 <0>        -0.1060
     16 C15        -0.9356    5.2346    0.4200 C.3       1 <0>         0.0100
     17 H2         -0.1344    5.9736    0.4122 H         1 <0>         0.1019
     18 C16        -1.7569    5.3448   -0.8701 C.3       1 <0>        -0.1517
     19 C17        -2.3995    6.6988   -0.9126 C.2       1 <0>         0.4003
     20 O1         -2.6524    7.1931   -1.9939 O.2       1 <0>        -0.4651
     21 C18        -0.3519    3.8501    0.5372 C.2       1 <0>        -0.1418
     22 C19         0.9481    3.4764    0.6250 C.2       1 <0>        -0.1495
     23 C20         1.2538    2.1322    0.7259 C.2       1 <0>        -0.1569
     24 C21         0.2445    1.2274    0.7341 C.2       1 <0>        -0.1698
     25 S1         -1.1929    2.2762    0.5895 S.3       1 <0>         0.0389
     26 N1         -2.7463    7.5029    2.6519 N.pl3     1 <0>        -0.6854
     27 C22        -2.4274    8.8215    2.9546 C.ar      1 <0>         0.1133
     28 C23        -1.5165    9.1561    3.9413 C.ar      1 <0>        -0.1136
     29 C24        -1.2813   10.4910    4.2235 C.ar      1 <0>        -0.1216
     30 C25        -1.9524   11.4801    3.5279 C.ar      1 <0>        -0.1055
     31 C26        -2.8506   11.1473    2.5286 C.ar      1 <0>        -0.1228
     32 C27        -3.0715    9.8127    2.2293 C.ar      1 <0>         0.1722
     33 N2         -3.8798    9.4318    1.1592 N.pl3     1 <0>        -0.7678
     34 H3          1.4214   13.2401   -3.7853 H         1 <0>         0.1212
     35 H4         -0.5274   12.6679   -5.1690 H         1 <0>         0.1216
     36 H5         -2.2968   11.2359   -4.3026 H         1 <0>         0.1255
     37 H6         -3.2221    9.8835   -2.4401 H         1 <0>         0.1258
     38 H7         -1.0685    9.6155    1.2205 H         1 <0>         0.1189
     39 H8          0.7059   11.0393    0.3504 H         1 <0>         0.1215
     40 H9          1.6315   12.3909   -1.5122 H         1 <0>         0.1240
     41 H10        -2.6729    4.7591    1.5963 H         1 <0>         0.0950
     42 H11        -1.3156    5.4337    2.5280 H         1 <0>         0.0943
     43 H12        -1.1549    5.2258   -1.6597 H         1 <0>         0.0904
     44 H13        -2.5278    4.5743   -0.8802 H         1 <0>         0.1025
     45 H14         1.7333    4.2179    0.6158 H         1 <0>         0.1333
     46 H15         2.2814    1.8077    0.7975 H         1 <0>         0.1349
     47 H16         0.2967    0.1510    0.8049 H         1 <0>         0.1864
     48 H17        -3.1942    6.9813    3.3361 H         1 <0>         0.4061
     49 H18        -0.9939    8.3834    4.4857 H         1 <0>         0.1269
     50 H19        -0.5701   10.7612    4.9902 H         1 <0>         0.1266
     51 H20        -1.7750   12.5185    3.7660 H         1 <0>         0.1249
     52 H21        -3.3743   11.9211    1.9869 H         1 <0>         0.1256
     53 H22        -4.8337    9.6037    1.1964 H         1 <0>         0.3994
@<TRIPOS>BOND
     1    1   10 ar
     2    1    2 ar
     3    1   34 1
     4    2    3 ar
     5    2   35 1
     6    3    4 ar
     7    3   36 1
     8    4    9 ar
     9    4    5 ar
    10    5    6 ar
    11    5   37 1
    12    6    7 ar
    13    6   11 1
    14    7    8 ar
    15    7   38 1
    16    8    9 ar
    17    8   39 1
    18    9   10 ar
    19   10   40 1
    20   11   12 1
    21   11   33 1
    22   11   13 1
    23   13   19 1
    24   13   14 2
    25   14   15 1
    26   14   26 1
    27   15   16 1
    28   15   41 1
    29   15   42 1
    30   16   17 1
    31   16   18 1
    32   16   21 1
    33   18   19 1
    34   18   43 1
    35   18   44 1
    36   19   20 2
    37   21   25 1
    38   21   22 2
    39   22   23 1
    40   22   45 1
    41   23   24 2
    42   23   46 1
    43   24   25 1
    44   24   47 1
    45   26   27 1
    46   26   48 1
    47   27   32 ar
    48   27   28 ar
    49   28   29 ar
    50   28   49 1
    51   29   30 ar
    52   29   50 1
    53   30   31 ar
    54   30   51 1
    55   31   32 ar
    56   31   52 1
    57   32   33 1
    58   33   53 1
@<TRIPOS>MOLECULE
ZINC03167033
   31    33     0     0     0
SMALL
USER_CHARGES
3-[4-(5-bromo-2-thienyl)thiazol-2-yl]-1-(3,4-dichlorophenyl)urea
@<TRIPOS>ATOM
      1 C1          2.2476    1.1927   -0.7699 C.ar      1 <0>        -0.1022
      2 C2          1.0409    1.8652   -0.7592 C.ar      1 <0>        -0.0746
      3 C3         -0.0160    1.3807   -0.0096 C.ar      1 <0>        -0.0434
      4 C4          0.1327    0.2203    0.7321 C.ar      1 <0>        -0.0111
      5 C5          1.3380   -0.4558    0.7246 C.ar      1 <0>        -0.1228
      6 C6          2.3998    0.0294   -0.0275 C.ar      1 <0>         0.1769
      7 N1          3.6219   -0.6532   -0.0366 N.am      1 <0>        -0.6679
      8 C7          4.7765    0.0335   -0.1458 C.2       1 <0>         0.7115
      9 O1          4.7637    1.2492   -0.1389 O.2       1 <0>        -0.5306
     10 N2          5.9452   -0.6275   -0.2625 N.am      1 <0>        -0.6134
     11 C8          7.1354    0.0804   -0.3750 C.2       1 <0>         0.3337
     12 N3          8.3682   -0.3746   -0.4970 N.2       1 <0>        -0.5255
     13 C9          9.4030    0.4569   -0.5945 C.2       1 <0>         0.1534
     14 C10         9.1801    1.8068   -0.5673 C.2       1 <0>        -0.2316
     15 S1          7.4005    1.8476   -0.4005 S.3       1 <0>         0.1543
     16 C11        10.7772   -0.0717   -0.7311 C.2       1 <0>        -0.0765
     17 C12        11.2005   -1.3727   -0.7720 C.2       1 <0>        -0.1304
     18 C13        12.5492   -1.6267   -0.9096 C.2       1 <0>        -0.1072
     19 C14        13.4134   -0.5828   -0.9898 C.2       1 <0>        -0.1804
     20 S2         12.3163    0.8210   -0.8776 S.3       1 <0>         0.1336
     21 Br1        15.2953   -0.6090   -1.1732 Br        1 <0>         0.0430
     22 Cl1        -1.1955   -0.3847    1.6722 Cl        1 <0>        -0.0378
     23 Cl2        -1.5287    2.2322    0.0073 Cl        1 <0>        -0.0424
     24 H1          3.0722    1.5719   -1.3551 H         1 <0>         0.1531
     25 H2          0.9226    2.7703   -1.3364 H         1 <0>         0.1504
     26 H3          1.4539   -1.3607    1.3026 H         1 <0>         0.1487
     27 H4          3.6378   -1.6204    0.0355 H         1 <0>         0.4182
     28 H5          5.9554   -1.5974   -0.2680 H         1 <0>         0.4270
     29 H6          9.8847    2.6227   -0.6327 H         1 <0>         0.2014
     30 H7         10.4919   -2.1846   -0.7007 H         1 <0>         0.1479
     31 H8         12.9133   -2.6427   -0.9489 H         1 <0>         0.1451
@<TRIPOS>BOND
     1    1    6 ar
     2    1    2 ar
     3    1   24 1
     4    2    3 ar
     5    2   25 1
     6    3    4 ar
     7    3   23 1
     8    4    5 ar
     9    4   22 1
    10    5    6 ar
    11    5   26 1
    12    6    7 1
    13    7    8 am
    14    7   27 1
    15    8    9 2
    16    8   10 am
    17   10   11 1
    18   10   28 1
    19   11   15 1
    20   11   12 2
    21   12   13 1
    22   13   14 2
    23   13   16 1
    24   14   15 1
    25   14   29 1
    26   16   20 1
    27   16   17 2
    28   17   18 1
    29   17   30 1
    30   18   19 2
    31   18   31 1
    32   19   20 1
    33   19   21 1
@<TRIPOS>MOLECULE
ZINC19644402
   42    44     0     0     0
SMALL
USER_CHARGES
N-[[4-(4-bromophenyl)thiazol-2-yl]carbamothioyl]-2,4-dimethyl-benzamide
@<TRIPOS>ATOM
      1 C1          3.5937   -0.8168   -0.4973 C.3       1 <0>        -0.1246
      2 C2          2.3411   -0.0194   -0.2402 C.ar      1 <0>        -0.0485
      3 C3          1.1522   -0.6732    0.0323 C.ar      1 <0>        -0.1346
      4 C4          0.0019    0.0505    0.2680 C.ar      1 <0>        -0.0778
      5 C5          0.0389    1.4458    0.2313 C.ar      1 <0>        -0.1482
      6 C6          1.2415    2.0989   -0.0442 C.ar      1 <0>        -0.0104
      7 C7          2.3847    1.3628   -0.2782 C.ar      1 <0>        -0.1310
      8 C8          1.2910    3.6045   -0.0860 C.3       1 <0>        -0.1169
      9 C9         -1.1908    2.2275    0.4769 C.2       1 <0>         0.5362
     10 O1         -1.1349    3.4388    0.5572 O.2       1 <0>        -0.4139
     11 N1         -2.3744    1.5971    0.6117 N.am      1 <0>        -0.6297
     12 C10        -3.4960    2.3101    0.8358 C.2       1 <0>         0.4945
     13 S1         -3.4172    4.0166    0.9490 S.2       1 <0>        -0.5131
     14 N2         -4.6796    1.6797    0.9706 N.2       1 <0>        -0.5660
     15 C11        -5.8352    2.4144    1.2014 C.2       1 <0>         0.3612
     16 N3         -7.0758    1.9920    1.3603 N.pl3     1 <0>        -0.5382
     17 C12        -8.0693    2.8416    1.5752 C.2       1 <0>         0.0822
     18 C13        -7.8052    4.1814    1.6336 C.2       1 <0>        -0.2647
     19 S2         -6.0367    4.1824    1.3701 S.3       1 <0>         0.2763
     20 C14        -9.4552    2.3435    1.7512 C.ar      1 <0>        -0.0200
     21 C15       -10.4966    3.2405    1.9833 C.ar      1 <0>        -0.0885
     22 C16       -11.7850    2.7723    2.1411 C.ar      1 <0>        -0.0799
     23 C17       -12.0426    1.4136    2.0798 C.ar      1 <0>        -0.0871
     24 C18       -11.0112    0.5182    1.8553 C.ar      1 <0>        -0.0787
     25 C19        -9.7200    0.9763    1.6909 C.ar      1 <0>        -0.1153
     26 Br1       -13.8096    0.7786    2.3042 Br        1 <0>        -0.0394
     27 H1          3.3660   -1.8906   -0.4255 H         1 <0>         0.0696
     28 H2          4.3563   -0.5528    0.2502 H         1 <0>         0.0761
     29 H3          3.9731   -0.5890   -1.5044 H         1 <0>         0.0761
     30 H4          1.1249   -1.7525    0.0601 H         1 <0>         0.1305
     31 H5         -0.9253   -0.4610    0.4803 H         1 <0>         0.1247
     32 H6          3.3158    1.8668   -0.4915 H         1 <0>         0.1322
     33 H7          2.3158    3.9314   -0.3160 H         1 <0>         0.0611
     34 H8          0.9878    4.0086    0.8911 H         1 <0>         0.0872
     35 H9          0.6055    3.9724   -0.8636 H         1 <0>         0.0813
     36 H10        -2.4250    0.5007    0.5388 H         1 <0>         0.4409
     37 H11        -8.4781    5.0101    1.7978 H         1 <0>         0.1982
     38 H12       -10.2960    4.3004    2.0357 H         1 <0>         0.1430
     39 H13       -12.5932    3.4667    2.3169 H         1 <0>         0.1421
     40 H14       -11.2174   -0.5409    1.8090 H         1 <0>         0.1399
     41 H15        -8.9159    0.2768    1.5161 H         1 <0>         0.1278
     42 H16        -7.3005    0.9161    1.3153 H         1 <0>         0.4456
@<TRIPOS>BOND
     1    1    2 1
     2    1   27 1
     3    1   28 1
     4    1   29 1
     5    2    7 ar
     6    2    3 ar
     7    3    4 ar
     8    3   30 1
     9    4    5 ar
    10    4   31 1
    11    5    6 ar
    12    5    9 1
    13    6    7 ar
    14    6    8 1
    15    7   32 1
    16    8   33 1
    17    8   34 1
    18    8   35 1
    19    9   10 2
    20    9   11 am
    21   11   12 1
    22   11   36 1
    23   12   13 2
    24   12   14 1
    25   14   15 2
    26   15   19 1
    27   15   16 1
    28   16   17 1
    29   16   42 1
    30   17   18 2
    31   17   20 1
    32   18   19 1
    33   18   37 1
    34   20   25 ar
    35   20   21 ar
    36   21   22 ar
    37   21   38 1
    38   22   23 ar
    39   22   39 1
    40   23   24 ar
    41   23   26 1
    42   24   25 ar
    43   24   40 1
    44   25   41 1
@<TRIPOS>MOLECULE
ZINC04290264
   34    36     0     0     0
SMALL
USER_CHARGES

@<TRIPOS>ATOM
      1 C1          0.9772   -0.2834    0.9454 C.ar      1 <0>        -0.1055
      2 C2          2.1659    0.4181    0.9412 C.ar      1 <0>        -0.0773
      3 C3          2.3839    1.4097   -0.0132 C.ar      1 <0>        -0.0069
      4 C4          1.3981    1.6881   -0.9603 C.ar      1 <0>         0.0021
      5 C5          0.2126    0.9802   -0.9471 C.ar      1 <0>        -0.1060
      6 C6          0.0020   -0.0039    0.0037 C.ar      1 <0>        -0.0201
      7 Cl1        -1.4906   -0.8903    0.0150 Cl        1 <0>        -0.0544
      8 Cl2         1.6611    2.9222   -2.1526 Cl        1 <0>        -0.0403
      9 C7          3.6592    2.1669   -0.0218 C.2       1 <0>         0.1266
     10 C8          4.8534    1.5072    0.0610 C.2       1 <0>        -0.2283
     11 S1          5.9962    2.8814    0.0072 S.3       1 <0>         0.0604
     12 C9          4.7762    4.1816   -0.1189 C.2       1 <0>         0.3885
     13 N1          3.6513    3.4883   -0.1152 N.2       1 <0>        -0.5449
     14 N2          4.9609    5.5510   -0.2036 N.pl3     1 <0>        -0.5230
     15 N3          6.2562    6.0849   -0.1972 N.2       1 <0>        -0.2060
     16 C10         6.4295    7.3693   -0.2767 C.2       1 <0>         0.1118
     17 C11         7.7920    7.9309   -0.2700 C.ar      1 <0>        -0.0775
     18 C12         7.9826    9.3123   -0.3495 C.ar      1 <0>        -0.0441
     19 C13         9.2611    9.8315   -0.3422 C.ar      1 <0>        -0.1066
     20 C14        10.3564    8.9880   -0.2564 C.ar      1 <0>        -0.0557
     21 C15        10.1800    7.6192   -0.1777 C.ar      1 <0>        -0.1438
     22 C16         8.9034    7.0821   -0.1779 C.ar      1 <0>         0.1636
     23 O1          8.7294    5.7374   -0.0945 O.3       1 <0>        -0.4729
     24 Br1         9.5188   11.7017   -0.4505 Br        1 <0>        -0.0376
     25 H1          0.8095   -1.0551    1.6821 H         1 <0>         0.1447
     26 H2          2.9257    0.1990    1.6768 H         1 <0>         0.1457
     27 H3         -0.5515    1.1945   -1.6797 H         1 <0>         0.1464
     28 H4          5.0520    0.4484    0.1382 H         1 <0>         0.1992
     29 H5          4.1935    6.1409   -0.2675 H         1 <0>         0.4054
     30 H6          5.5751    8.0261   -0.3478 H         1 <0>         0.1303
     31 H7          7.1308    9.9729   -0.4169 H         1 <0>         0.1441
     32 H8         11.3539    9.4020   -0.2512 H         1 <0>         0.1417
     33 H9         11.0389    6.9679   -0.1117 H         1 <0>         0.1448
     34 H10         8.7075    5.2898   -0.9514 H         1 <0>         0.3957
@<TRIPOS>BOND
     1    1    6 ar
     2    1    2 ar
     3    1   25 1
     4    2    3 ar
     5    2   26 1
     6    3    4 ar
     7    3    9 1
     8    4    5 ar
     9    4    8 1
    10    5    6 ar
    11    5   27 1
    12    6    7 1
    13    9   13 1
    14    9   10 2
    15   10   11 1
    16   10   28 1
    17   11   12 1
    18   12   13 2
    19   12   14 1
    20   14   15 1
    21   14   29 1
    22   15   16 2
    23   16   17 1
    24   16   30 1
    25   17   22 ar
    26   17   18 ar
    27   18   19 ar
    28   18   31 1
    29   19   20 ar
    30   19   24 1
    31   20   21 ar
    32   20   32 1
    33   21   22 ar
    34   21   33 1
    35   22   23 1
    36   23   34 1
@<TRIPOS>MOLECULE
ZINC04284151
   32    34     0     0     0
SMALL
USER_CHARGES
3-[[7-(4-chlorophenyl)-9-thia-2,4-diazabicyclo[4.3.0]nona-1,3,5,7-tetraen-5-yl]sulfanyl]propanoic acid
@<TRIPOS>ATOM
      1 C1          1.2425   -2.6133   -0.9432 C.ar      1 <0>        -0.0837
      2 C2          1.6743   -3.9238   -0.9534 C.ar      1 <0>        -0.1131
      3 C3          2.6291   -4.3476   -0.0448 C.ar      1 <0>        -0.0233
      4 C4          3.1604   -3.4585    0.8739 C.ar      1 <0>        -0.1044
      5 C5          2.7398   -2.1445    0.8889 C.ar      1 <0>        -0.0613
      6 C6          1.7782   -1.7125   -0.0236 C.ar      1 <0>        -0.0430
      7 C7          1.3226   -0.3021   -0.0122 C.2       1 <0>        -0.0414
      8 C8          0.0159   -0.0010    0.1742 C.2       1 <0>        -0.1502
      9 S1         -0.0144    1.7800    0.1064 S.3       1 <0>         0.1090
     10 C9          1.7114    2.0802   -0.1681 C.ar      1 <0>         0.1353
     11 C10         2.2741    0.7878   -0.2011 C.ar      1 <0>        -0.1828
     12 C11         3.6784    0.7388   -0.4130 C.ar      1 <0>         0.2156
     13 N1          4.3494    1.8710   -0.5613 N.ar      1 <0>        -0.5240
     14 C12         3.7558    3.0496   -0.5190 C.ar      1 <0>         0.3399
     15 N2          2.4554    3.1581   -0.3258 N.ar      1 <0>        -0.4981
     16 S2          4.5169   -0.8096   -0.4770 S.3       1 <0>        -0.0172
     17 C13         6.2111   -0.2381   -0.7586 C.3       1 <0>        -0.0942
     18 C14         7.1474   -1.4445   -0.8515 C.3       1 <0>        -0.1460
     19 C15         8.5580   -0.9687   -1.0860 C.2       1 <0>         0.4680
     20 O1          8.7905    0.2139   -1.1701 O.co2     1 <0>        -0.6340
     21 Cl1         3.1623   -5.9996   -0.0578 Cl        1 <0>        -0.0701
     22 H1          0.4941   -2.2848   -1.6493 H         1 <0>         0.1326
     23 H2          1.2635   -4.6212   -1.6684 H         1 <0>         0.1348
     24 H3          3.9053   -3.7942    1.5803 H         1 <0>         0.1382
     25 H4          3.1544   -1.4519    1.6064 H         1 <0>         0.1357
     26 H5         -0.8111   -0.6785    0.3274 H         1 <0>         0.2000
     27 H6          4.3476    3.9441   -0.6456 H         1 <0>         0.2114
     28 H7          6.2538    0.3275   -1.6893 H         1 <0>         0.0942
     29 H8          6.5216    0.3999    0.0689 H         1 <0>         0.0952
     30 H9          7.1047   -2.0102    0.0792 H         1 <0>         0.0721
     31 H10         6.8369   -2.0825   -1.6790 H         1 <0>         0.0719
     32 O2          9.5561   -1.8588   -1.2014 O.co2     1 <0>        -0.7672
@<TRIPOS>BOND
     1    1    6 ar
     2    1    2 ar
     3    1   22 1
     4    2    3 ar
     5    2   23 1
     6    3    4 ar
     7    3   21 1
     8    4    5 ar
     9    4   24 1
    10    5    6 ar
    11    5   25 1
    12    6    7 1
    13    7   11 1
    14    7    8 2
    15    8    9 1
    16    8   26 1
    17    9   10 1
    18   10   15 ar
    19   10   11 ar
    20   11   12 ar
    21   12   13 ar
    22   12   16 1
    23   13   14 ar
    24   14   15 ar
    25   14   27 1
    26   16   17 1
    27   17   18 1
    28   17   28 1
    29   17   29 1
    30   18   19 1
    31   18   30 1
    32   18   31 1
    33   19   20 2
    34   19   32 1
@<TRIPOS>MOLECULE
ZINC13335350
   45    47     0     0     0
SMALL
USER_CHARGES
(2S)-2-[2-[(3,5-dimethylphenyl)methylsulfanyl]-4-oxo-quinazolin-3-yl]propanoic acid
@<TRIPOS>ATOM
      1 C1          2.9930   -8.9429    2.4304 C.3       1 <0>        -0.1137
      2 C2          2.8152   -8.2011    1.1307 C.ar      1 <0>        -0.0840
      3 C3          2.9541   -8.8697   -0.0712 C.ar      1 <0>        -0.1162
      4 C4          2.7906   -8.1894   -1.2634 C.ar      1 <0>        -0.0821
      5 C5          2.4877   -6.8407   -1.2537 C.ar      1 <0>        -0.1051
      6 C6          2.3478   -6.1724   -0.0518 C.ar      1 <0>        -0.0691
      7 C7          2.5165   -6.8515    1.1404 C.ar      1 <0>        -0.1065
      8 C8          2.0176   -4.7020   -0.0412 C.3       1 <0>        -0.0695
      9 S1          0.2204   -4.4875   -0.0226 S.3       1 <0>         0.0070
     10 C9          0.1224   -2.7282   -0.0128 C.2       1 <0>         0.3829
     11 N1          1.2377   -2.0405   -0.0203 N.2       1 <0>        -0.5548
     12 C10         1.2366   -0.6924   -0.0135 C.ar      1 <0>         0.1769
     13 C11         2.4266    0.0415   -0.0209 C.ar      1 <0>        -0.1228
     14 C12         2.3791    1.4069   -0.0131 C.ar      1 <0>        -0.0776
     15 C13         1.1640    2.0798    0.0021 C.ar      1 <0>        -0.1552
     16 C14        -0.0168    1.3899    0.0097 C.ar      1 <0>        -0.0347
     17 C15         0.0021   -0.0041    0.0020 C.ar      1 <0>        -0.1972
     18 C16        -1.2346   -0.7972    0.0101 C.2       1 <0>         0.5590
     19 O1         -2.3279   -0.2622    0.0234 O.2       1 <0>        -0.4802
     20 N2         -1.1125   -2.1451    0.0017 N.am      1 <0>        -0.4994
     21 C17        -2.3132   -2.9843    0.0087 C.3       1 <0>         0.0737
     22 H1         -2.0224   -4.0348    0.0006 H         1 <0>         0.1030
     23 C18        -3.1327   -2.6917    1.2671 C.3       1 <0>        -0.1445
     24 C19        -3.1434   -2.6836   -1.2126 C.2       1 <0>         0.4708
     25 O2         -2.7704   -1.8535   -2.0073 O.co2     1 <0>        -0.6127
     26 C20         2.9420   -8.9183   -2.5737 C.3       1 <0>        -0.1151
     27 H2          4.0386   -8.8971    2.7348 H         1 <0>         0.0692
     28 H3          2.3706   -8.4841    3.1987 H         1 <0>         0.0674
     29 H4          2.6984   -9.9839    2.2979 H         1 <0>         0.0656
     30 H5          3.1901   -9.9236   -0.0788 H         1 <0>         0.1209
     31 H6          2.3599   -6.3092   -2.1852 H         1 <0>         0.1263
     32 H7          2.4117   -6.3283    2.0794 H         1 <0>         0.1250
     33 H8          2.4306   -4.2304   -0.9329 H         1 <0>         0.1079
     34 H9          2.4479   -4.2394    0.8470 H         1 <0>         0.1074
     35 H10         3.3786   -0.4684   -0.0331 H         1 <0>         0.1324
     36 H11         3.2998    1.9714   -0.0193 H         1 <0>         0.1266
     37 H12         1.1516    3.1597    0.0080 H         1 <0>         0.1263
     38 H13        -0.9571    1.9212    0.0170 H         1 <0>         0.1340
     39 H14        -3.4236   -1.6412    1.2751 H         1 <0>         0.0742
     40 H15        -4.0261   -3.3161    1.2723 H         1 <0>         0.0839
     41 H16        -2.5323   -2.9092    2.1504 H         1 <0>         0.0467
     42 H17         3.9812   -8.8687   -2.8991 H         1 <0>         0.0696
     43 H18         2.6508   -9.9608   -2.4454 H         1 <0>         0.0658
     44 H19         2.3037   -8.4524   -3.3245 H         1 <0>         0.0689
     45 O3         -4.2973   -3.3381   -1.4175 O.co2     1 <0>        -0.7511
@<TRIPOS>BOND
     1    1    2 1
     2    1   27 1
     3    1   28 1
     4    1   29 1
     5    2    7 ar
     6    2    3 ar
     7    3    4 ar
     8    3   30 1
     9    4    5 ar
    10    4   26 1
    11    5    6 ar
    12    5   31 1
    13    6    7 ar
    14    6    8 1
    15    7   32 1
    16    8    9 1
    17    8   33 1
    18    8   34 1
    19    9   10 1
    20   10   20 1
    21   10   11 2
    22   11   12 1
    23   12   17 ar
    24   12   13 ar
    25   13   14 ar
    26   13   35 1
    27   14   15 ar
    28   14   36 1
    29   15   16 ar
    30   15   37 1
    31   16   17 ar
    32   16   38 1
    33   17   18 1
    34   18   19 2
    35   18   20 am
    36   20   21 1
    37   21   22 1
    38   21   23 1
    39   21   24 1
    40   23   39 1
    41   23   40 1
    42   23   41 1
    43   24   25 2
    44   24   45 1
    45   26   42 1
    46   26   43 1
    47   26   44 1
@<TRIPOS>MOLECULE
ZINC01245062
   41    43     0     0     0
SMALL
USER_CHARGES
(5E)-1-allyl-5-[[5-(p-tolylsulfanyl)-2-furyl]methylene]-2-thioxo-hexahydropyrimidine-4,6-dione
@<TRIPOS>ATOM
      1 C1         -0.7456    6.2678   -7.1831 C.3       1 <0>        -0.1150
      2 C2         -0.6291    6.0513   -5.6963 C.ar      1 <0>        -0.0915
      3 C3         -1.7147    6.2988   -4.8760 C.ar      1 <0>        -0.1023
      4 C4         -1.6131    6.0969   -3.5138 C.ar      1 <0>        -0.1113
      5 C5         -0.4148    5.6549   -2.9662 C.ar      1 <0>        -0.1218
      6 C6          0.6754    5.4122   -3.7928 C.ar      1 <0>        -0.0947
      7 C7          0.5648    5.6109   -5.1548 C.ar      1 <0>        -0.1054
      8 S1         -0.2781    5.4033   -1.2276 S.3       1 <0>         0.1070
      9 C8         -1.8381    6.0330   -0.7037 C.2       1 <0>        -0.0621
     10 C9         -2.1216    7.3581   -0.4310 C.2       1 <0>        -0.1395
     11 C10        -3.4562    7.4221   -0.0530 C.2       1 <0>        -0.1752
     12 C11        -3.9524    6.1211   -0.1067 C.2       1 <0>         0.0386
     13 O1         -2.9496    5.3063   -0.5089 O.3       1 <0>        -0.0981
     14 C12        -5.2553    5.7283    0.1960 C.2       1 <0>         0.0510
     15 C13        -5.4788    4.5879    0.9728 C.2       1 <0>        -0.2439
     16 C14        -4.3724    3.8854    1.6389 C.2       1 <0>         0.5208
     17 O2         -3.2262    4.2808    1.5306 O.3       1 <0>        -0.4983
     18 N1         -4.6607    2.7915    2.3735 N.2       1 <0>        -0.6226
     19 C15        -5.9186    2.3457    2.5013 C.2       1 <0>         0.5418
     20 S2         -6.1924    0.9493    3.4532 S.2       1 <0>        -0.6917
     21 N2         -6.9729    2.9369    1.9217 N.am      1 <0>        -0.5392
     22 C16        -6.8310    4.0436    1.1636 C.2       1 <0>         0.5598
     23 O3         -7.7968    4.5747    0.6466 O.2       1 <0>        -0.5116
     24 C17        -8.3100    2.3726    2.1219 C.3       1 <0>         0.1189
     25 C18        -8.9415    2.9969    3.3395 C.2       1 <0>        -0.1489
     26 C19       -10.1121    3.5775    3.2454 C.2       1 <0>        -0.1917
     27 H1         -1.7608    6.6158   -7.4245 H         1 <0>         0.0648
     28 H2         -0.5478    5.3216   -7.7080 H         1 <0>         0.0696
     29 H3         -0.0132    7.0241   -7.5020 H         1 <0>         0.0692
     30 H4         -2.6442    6.6469   -5.3017 H         1 <0>         0.1243
     31 H5         -2.4624    6.2864   -2.8742 H         1 <0>         0.1228
     32 H6          1.6081    5.0683   -3.3706 H         1 <0>         0.1284
     33 H7          1.4118    5.4225   -5.7979 H         1 <0>         0.1267
     34 H8         -1.4340    8.1882   -0.4995 H         1 <0>         0.1599
     35 H9         -4.0041    8.3092    0.2285 H         1 <0>         0.1606
     36 H10        -6.1075    6.3158   -0.1764 H         1 <0>         0.1714
     37 H11        -8.9318    2.5808    1.2388 H         1 <0>         0.0865
     38 H12        -8.2311    1.2850    2.2666 H         1 <0>         0.1298
     39 H13        -8.4195    2.9651    4.3073 H         1 <0>         0.1176
     40 H14       -10.5731    4.0332    4.1341 H         1 <0>         0.0980
     41 H15       -10.6341    3.6093    2.2776 H         1 <0>         0.0973
@<TRIPOS>BOND
     1    1    2 1
     2    1   27 1
     3    1   28 1
     4    1   29 1
     5    2    7 ar
     6    2    3 ar
     7    3    4 ar
     8    3   30 1
     9    4    5 ar
    10    4   31 1
    11    5    6 ar
    12    5    8 1
    13    6    7 ar
    14    6   32 1
    15    7   33 1
    16    8    9 1
    17    9   13 1
    18    9   10 2
    19   10   11 1
    20   10   34 1
    21   11   12 2
    22   11   35 1
    23   12   13 1
    24   12   14 1
    25   14   15 2
    26   14   36 1
    27   15   22 1
    28   15   16 1
    29   16   17 1
    30   16   18 2
    31   18   19 1
    32   19   20 2
    33   19   21 1
    34   21   22 am
    35   21   24 1
    36   22   23 2
    37   24   25 1
    38   24   37 1
    39   24   38 1
    40   25   26 2
    41   25   39 1
    42   26   40 1
    43   26   41 1
@<TRIPOS>MOLECULE
ZINC44214455
   32    33     0     0     0
SMALL
USER_CHARGES

@<TRIPOS>ATOM
      1 C1          0.4053    1.4402   -0.0471 C.3       1 <0>         0.0914
      2 N1          0.1876   -0.0083   -0.0215 N.pl3     1 <0>        -0.3485
      3 C2         -0.0871   -0.7814   -1.0902 C.2       1 <0>         0.2374
      4 C3         -0.2188   -2.0902   -0.6268 C.2       1 <0>        -0.1208
      5 C4         -0.0079   -2.0545    0.7736 C.2       1 <0>        -0.0028
      6 N2          0.2361   -0.8214    1.1158 N.2       1 <0>        -0.2147
      7 C5         -0.0519   -3.2384    1.7049 C.3       1 <0>         0.5559
      8 F1          1.2249   -3.8016    1.8038 F         1 <0>        -0.1638
      9 F2         -0.4766   -2.8205    2.9707 F         1 <0>        -0.1695
     10 F3         -0.9449   -4.1922    1.2048 F         1 <0>        -0.1486
     11 C6         -0.5179   -3.2733   -1.4325 C.2       1 <0>        -0.0812
     12 C7          0.2504   -4.3871   -1.3148 C.2       1 <0>        -0.1117
     13 C8         -0.0374   -5.5256   -2.0901 C.2       1 <0>         0.4469
     14 O1         -1.0638   -5.5110   -2.9399 O.co2     1 <0>        -0.7015
     15 O2          0.7165   -6.6184   -1.9746 O.co2     1 <0>        -0.7053
     16 O3         -0.2124   -0.3660   -2.3717 O.3       1 <0>        -0.2132
     17 C9          0.9173   -0.2497   -3.1181 C.ar      1 <0>         0.1160
     18 C10         2.1373   -0.6609   -2.6005 C.ar      1 <0>        -0.1695
     19 C11         3.2844   -0.5417   -3.3607 C.ar      1 <0>        -0.0686
     20 C12         3.2175   -0.0124   -4.6375 C.ar      1 <0>        -0.0605
     21 C13         2.0020    0.3986   -5.1553 C.ar      1 <0>        -0.0735
     22 C14         0.8515    0.2751   -4.4009 C.ar      1 <0>        -0.1208
     23 Cl1         4.6608    0.1367   -5.5906 Cl        1 <0>        -0.0682
     24 H1          1.4732    1.6459   -0.1203 H         1 <0>         0.0838
     25 H2         -0.1073    1.8695   -0.9079 H         1 <0>         0.0965
     26 H3          0.0119    1.8829    0.8680 H         1 <0>         0.0998
     27 H4         -1.3498   -3.2614   -2.1212 H         1 <0>         0.1438
     28 H5          1.0823   -4.3989   -0.6261 H         1 <0>         0.1043
     29 H6          2.1900   -1.0734   -1.6038 H         1 <0>         0.1353
     30 H7          4.2341   -0.8616   -2.9582 H         1 <0>         0.1401
     31 H8          1.9520    0.8118   -6.1519 H         1 <0>         0.1448
     32 H9         -0.0978    0.5916   -4.8072 H         1 <0>         0.1466
@<TRIPOS>BOND
     1    1    2 1
     2    1   24 1
     3    1   25 1
     4    1   26 1
     5    2    6 1
     6    2    3 1
     7    3    4 2
     8    3   16 1
     9    4    5 1
    10    4   11 1
    11    5    6 2
    12    5    7 1
    13    7    8 1
    14    7    9 1
    15    7   10 1
    16   11   12 2
    17   11   27 1
    18   12   13 1
    19   12   28 1
    20   13   14 2
    21   13   15 1
    22   16   17 1
    23   17   22 ar
    24   17   18 ar
    25   18   19 ar
    26   18   29 1
    27   19   20 ar
    28   19   30 1
    29   20   21 ar
    30   20   23 1
    31   21   22 ar
    32   21   31 1
    33   22   32 1
@<TRIPOS>MOLECULE
ZINC61629338
   28    29     0     0     0
SMALL
USER_CHARGES

@<TRIPOS>ATOM
      1 C1          0.1285    1.2604    0.1921 C.ar      1 <0>        -0.0902
      2 C2          1.3520    1.8967    0.2731 C.ar      1 <0>        -0.0824
      3 C3          2.5178    1.1535    0.3219 C.ar      1 <0>        -0.0319
      4 C4          2.4615   -0.2302    0.2893 C.ar      1 <0>        -0.0086
      5 C5          1.2397   -0.8709    0.2078 C.ar      1 <0>        -0.0949
      6 C6          0.0687   -0.1262    0.1596 C.ar      1 <0>         0.1741
      7 N1         -1.1718   -0.7736    0.0778 N.pl3     1 <0>        -0.3102
      8 C7         -1.4646   -1.8522   -0.6999 C.2       1 <0>         0.0721
      9 C8         -2.7725   -2.1675   -0.4842 C.2       1 <0>        -0.2473
     10 C9         -3.2847   -1.2590    0.4459 C.2       1 <0>         0.0153
     11 N2         -2.3305   -0.4303    0.7862 N.2       1 <0>        -0.2534
     12 C10        -4.6964   -1.2403    0.9729 C.3       1 <0>         0.3628
     13 F1         -5.0570    0.0727    1.2940 F         1 <0>        -0.1918
     14 F2         -5.5656   -1.7369   -0.0044 F         1 <0>        -0.1875
     15 S1         -0.3560   -2.6866   -1.7861 S.3       1 <0>         0.0156
     16 C11        -1.4420   -3.6969   -2.8303 C.3       1 <0>        -0.1742
     17 C12        -0.6047   -4.5608   -3.7379 C.2       1 <0>         0.5150
     18 O1          0.6119   -4.5005   -3.6851 O.co2     1 <0>        -0.6699
     19 O2         -1.1439   -5.3200   -4.5248 O.co2     1 <0>        -0.6749
     20 Cl1         3.9263   -1.1598    0.3501 Cl        1 <0>        -0.0305
     21 Cl2         4.0537    1.9563    0.4238 Cl        1 <0>        -0.0434
     22 H1         -0.7813    1.8413    0.1585 H         1 <0>         0.1485
     23 H2          1.3984    2.9754    0.2980 H         1 <0>         0.1532
     24 H3          1.1957   -1.9497    0.1816 H         1 <0>         0.1580
     25 H4         -3.3169   -2.9758   -0.9497 H         1 <0>         0.1618
     26 H5         -4.7594   -1.8630    1.8653 H         1 <0>         0.1342
     27 H6         -2.0660   -4.3303   -2.1997 H         1 <0>         0.0905
     28 H7         -2.0762   -3.0458   -3.4319 H         1 <0>         0.0900
@<TRIPOS>BOND
     1    1    6 ar
     2    1    2 ar
     3    1   22 1
     4    2    3 ar
     5    2   23 1
     6    3    4 ar
     7    3   21 1
     8    4    5 ar
     9    4   20 1
    10    5    6 ar
    11    5   24 1
    12    6    7 1
    13    7   11 1
    14    7    8 1
    15    8    9 2
    16    8   15 1
    17    9   10 1
    18    9   25 1
    19   10   11 2
    20   10   12 1
    21   12   13 1
    22   12   14 1
    23   12   26 1
    24   15   16 1
    25   16   17 1
    26   16   27 1
    27   16   28 1
    28   17   18 2
    29   17   19 1
@<TRIPOS>MOLECULE
ZINC41797872
   37    39     0     0     0
SMALL
USER_CHARGES

@<TRIPOS>ATOM
      1 C1         -1.0762    1.1717   -0.6208 C.3       1 <0>        -0.1126
      2 C2         -0.4395   -0.1832   -0.4479 C.ar      1 <0>        -0.0819
      3 C3          0.1667   -0.8037   -1.5260 C.ar      1 <0>        -0.1249
      4 C4          0.7535   -2.0474   -1.3758 C.ar      1 <0>        -0.1081
      5 C5          0.7381   -2.6772   -0.1482 C.ar      1 <0>        -0.1334
      6 C6          0.1287   -2.0567    0.9432 C.ar      1 <0>         0.0257
      7 C7         -0.4574   -0.7995    0.7860 C.ar      1 <0>        -0.0878
      8 C8          0.1084   -2.7257    2.2615 C.2       1 <0>         0.1542
      9 N1         -0.0859   -2.1505    3.4253 N.2       1 <0>        -0.2643
     10 N2         -0.0398   -3.0291    4.3620 N.2       1 <0>        -0.3355
     11 C9          0.1869   -4.2197    3.8532 C.2       1 <0>         0.3885
     12 S1          0.3314   -5.7294    4.7502 S.3       1 <0>        -0.7900
     13 N3          0.2837   -4.0694    2.4993 N.pl3     1 <0>        -0.4823
     14 C10         0.5268   -5.1196    1.5073 C.3       1 <0>         0.1334
     15 C11         2.0113   -5.3117    1.3325 C.2       1 <0>         0.4477
     16 O1          2.7866   -4.6401    1.9711 O.2       1 <0>        -0.4532
     17 O2          2.4722   -6.2288    0.4673 O.3       1 <0>        -0.2930
     18 C12         3.8129   -6.4513    0.4269 C.ar      1 <0>         0.1142
     19 C13         4.4467   -7.0670    1.4964 C.ar      1 <0>        -0.0997
     20 C14         5.8091   -7.2929    1.4553 C.ar      1 <0>        -0.1059
     21 C15         6.5429   -6.9055    0.3475 C.ar      1 <0>         0.0674
     22 C16         5.9117   -6.2899   -0.7227 C.ar      1 <0>         0.0819
     23 C17         4.5466   -6.0680   -0.6857 C.ar      1 <0>        -0.1281
     24 F1          6.6286   -5.9120   -1.8036 F         1 <0>        -0.1233
     25 F2          7.8751   -7.1267    0.3091 F         1 <0>        -0.1256
     26 H1         -0.3369    1.9483   -0.4248 H         1 <0>         0.0704
     27 H2         -1.4465    1.2717   -1.6411 H         1 <0>         0.0650
     28 H3         -1.9059    1.2752    0.0785 H         1 <0>         0.0680
     29 H4          0.1816   -0.3150   -2.4890 H         1 <0>         0.1216
     30 H5          1.2244   -2.5267   -2.2214 H         1 <0>         0.1238
     31 H6          1.1962   -3.6483   -0.0323 H         1 <0>         0.1110
     32 H7         -0.9269   -0.3122    1.6276 H         1 <0>         0.1346
     33 H8          0.0774   -6.0524    1.8480 H         1 <0>         0.1461
     34 H9          0.0834   -4.8294    0.5548 H         1 <0>         0.1317
     35 H10         3.8752   -7.3694    2.3614 H         1 <0>         0.1522
     36 H11         6.3019   -7.7720    2.2884 H         1 <0>         0.1563
     37 H12         4.0534   -5.5930   -1.5209 H         1 <0>         0.1559
@<TRIPOS>BOND
     1    1    2 1
     2    1   26 1
     3    1   27 1
     4    1   28 1
     5    2    7 ar
     6    2    3 ar
     7    3    4 ar
     8    3   29 1
     9    4    5 ar
    10    4   30 1
    11    5    6 ar
    12    5   31 1
    13    6    7 ar
    14    6    8 1
    15    7   32 1
    16    8   13 1
    17    8    9 2
    18    9   10 1
    19   10   11 2
    20   11   12 1
    21   11   13 1
    22   13   14 1
    23   14   15 1
    24   14   33 1
    25   14   34 1
    26   15   16 2
    27   15   17 1
    28   17   18 1
    29   18   23 ar
    30   18   19 ar
    31   19   20 ar
    32   19   35 1
    33   20   21 ar
    34   20   36 1
    35   21   22 ar
    36   21   25 1
    37   22   23 ar
    38   22   24 1
    39   23   37 1
@<TRIPOS>MOLECULE
ZINC13351802
   42    43     0     0     0
SMALL
USER_CHARGES
6-[(5E)-5-[[5-bromo-2-(difluoromethoxy)phenyl]methylene]-4-oxo-2-thioxo-thiazolidin-3-yl]hexanoic acid
@<TRIPOS>ATOM
      1 C1          0.0694    1.3597    0.8046 C.ar      1 <0>        -0.0259
      2 C2          0.0822    0.3416   -0.1301 C.ar      1 <0>        -0.1947
      3 C3          1.2613   -0.3274   -0.4134 C.ar      1 <0>         0.1577
      4 C4          2.4438    0.0334    0.2539 C.ar      1 <0>        -0.1063
      5 C5          2.4165    1.0658    1.1983 C.ar      1 <0>         0.0130
      6 C6          1.2327    1.7201    1.4661 C.ar      1 <0>        -0.1207
      7 Br1         1.1963    3.1156    2.7418 Br        1 <0>        -0.0347
      8 C7          3.6998   -0.6683   -0.0372 C.2       1 <0>         0.0955
      9 C8          4.8583    0.0309   -0.1470 C.2       1 <0>        -0.2362
     10 C9          5.0781    1.4907   -0.1689 C.2       1 <0>         0.5350
     11 O1          4.1537    2.2778   -0.0829 O.2       1 <0>        -0.4405
     12 N1          6.3306    1.8998   -0.2824 N.am      1 <0>        -0.5181
     13 C10         7.3511    1.0243   -0.3853 C.2       1 <0>         0.2812
     14 S1          9.0232    1.3546   -0.5469 S.2       1 <0>        -0.3181
     15 S2          6.5363   -0.5629   -0.3126 S.3       1 <0>         0.0606
     16 C11         6.6152    3.3367   -0.3037 C.3       1 <0>         0.0825
     17 C12         6.5744    3.8434   -1.7468 C.3       1 <0>        -0.1293
     18 C13         6.8717    5.3441   -1.7690 C.3       1 <0>        -0.1124
     19 C14         6.8309    5.8508   -3.2121 C.3       1 <0>        -0.0964
     20 C15         7.1282    7.3515   -3.2342 C.3       1 <0>        -0.1574
     21 C16         7.0880    7.8506   -4.6556 C.2       1 <0>         0.4574
     22 O2          6.8465    7.0846   -5.5583 O.co2     1 <0>        -0.6425
     23 O3          1.2745   -1.3267   -1.3319 O.3       1 <0>        -0.3149
     24 C17         0.0344   -1.6376   -1.9702 C.3       1 <0>         0.4120
     25 F1         -0.9020   -2.0257   -1.0059 F         1 <0>        -0.1950
     26 F2         -0.4363   -0.5089   -2.6495 F         1 <0>        -0.1921
     27 H1         -0.8523    1.8808    1.0176 H         1 <0>         0.1445
     28 H2         -0.8291    0.0674   -0.6408 H         1 <0>         0.1480
     29 H3          3.3207    1.3495    1.7162 H         1 <0>         0.1424
     30 H4          3.7022   -1.7408   -0.1641 H         1 <0>         0.1641
     31 H5          5.8668    3.8641    0.2878 H         1 <0>         0.1052
     32 H6          7.6043    3.5175    0.1171 H         1 <0>         0.1136
     33 H7          7.3228    3.3160   -2.3383 H         1 <0>         0.0733
     34 H8          5.5853    3.6627   -2.1675 H         1 <0>         0.0671
     35 H9          6.1233    5.8715   -1.1774 H         1 <0>         0.0614
     36 H10         7.8608    5.5248   -1.3482 H         1 <0>         0.0653
     37 H11         7.5793    5.3234   -3.8036 H         1 <0>         0.0611
     38 H12         5.8418    5.6701   -3.6328 H         1 <0>         0.0588
     39 H13         6.3798    7.8789   -2.6427 H         1 <0>         0.0620
     40 H14         8.1173    7.5322   -2.8135 H         1 <0>         0.0633
     41 H15         0.1847   -2.4519   -2.6791 H         1 <0>         0.1888
     42 O4          7.3206    9.1461   -4.9189 O.co2     1 <0>        -0.7789
@<TRIPOS>BOND
     1    1    6 ar
     2    1    2 ar
     3    1   27 1
     4    2    3 ar
     5    2   28 1
     6    3    4 ar
     7    3   23 1
     8    4    5 ar
     9    4    8 1
    10    5    6 ar
    11    5   29 1
    12    6    7 1
    13    8    9 2
    14    8   30 1
    15    9   15 1
    16    9   10 1
    17   10   11 2
    18   10   12 am
    19   12   13 1
    20   12   16 1
    21   13   14 2
    22   13   15 1
    23   16   17 1
    24   16   31 1
    25   16   32 1
    26   17   18 1
    27   17   33 1
    28   17   34 1
    29   18   19 1
    30   18   35 1
    31   18   36 1
    32   19   20 1
    33   19   37 1
    34   19   38 1
    35   20   21 1
    36   20   39 1
    37   20   40 1
    38   21   22 2
    39   21   42 1
    40   23   24 1
    41   24   25 1
    42   24   26 1
    43   24   41 1
@<TRIPOS>MOLECULE
ZINC26675433
   68    71     0     0     0
SMALL
USER_CHARGES
(3R)-4-[2-[(4-fluorophenyl)-isopropyl-BLAHyl]ethyl-hydroxy-phosphoryl]-3-hydroxy-butanoic acid
@<TRIPOS>ATOM
      1 C1          2.3643    2.7864   -5.4312 C.3       1 <0>        -0.1363
      2 C2          0.9292    2.7806   -5.9615 C.3       1 <0>        -0.0595
      3 C3          0.8541    3.6197   -7.2387 C.3       1 <0>        -0.1367
      4 C4          0.5117    1.3648   -6.2653 C.ar      1 <0>         0.1337
      5 C5         -0.4846    0.7754   -5.5132 C.ar      1 <0>        -0.0833
      6 C6         -0.8666   -0.5414   -5.7956 C.ar      1 <0>        -0.0057
      7 C7         -0.2129   -1.2048   -6.8312 C.ar      1 <0>        -0.1059
      8 C8          0.7718   -0.5352   -7.5518 C.ar      1 <0>         0.1423
      9 N1          1.1079    0.7090   -7.2420 N.ar      1 <0>        -0.4589
     10 C9          1.4129   -1.2395   -8.6897 C.ar      1 <0>        -0.0220
     11 C10         2.7962   -1.2676   -8.8272 C.ar      1 <0>        -0.0848
     12 C11         3.3633   -1.9492   -9.8863 C.ar      1 <0>        -0.1287
     13 C12         2.5580   -2.6015  -10.8028 C.ar      1 <0>        -0.1174
     14 C13         1.1808   -2.5684  -10.6734 C.ar      1 <0>        -0.1202
     15 C14         0.6035   -1.8817   -9.6257 C.ar      1 <0>        -0.0577
     16 C15        -0.8923   -1.7889   -9.4990 C.3       1 <0>        -0.0857
     17 C16        -1.4096   -2.7231   -8.4090 C.3       1 <0>        -0.1078
     18 C17        -0.5354   -2.6345   -7.1615 C.3       1 <0>        -0.0772
     19 C18        -1.9365   -1.2103   -5.0153 C.ar      1 <0>        -0.0516
     20 C19        -1.7176   -1.5562   -3.6830 C.ar      1 <0>        -0.0676
     21 C20        -2.7170   -2.1737   -2.9597 C.ar      1 <0>        -0.1370
     22 C21        -3.9334   -2.4592   -3.5588 C.ar      1 <0>         0.1091
     23 C22        -4.1534   -2.1217   -4.8846 C.ar      1 <0>        -0.1485
     24 C23        -3.1613   -1.4997   -5.6139 C.ar      1 <0>        -0.0750
     25 F1         -4.9075   -3.0686   -2.8483 F         1 <0>        -0.1407
     26 C24        -1.1575    1.5430   -4.4046 C.3       1 <0>        -0.0601
     27 C25        -2.2937    2.3871   -4.9855 C.3       1 <0>        -0.7329
     28 P1         -3.1722    3.2369   -3.6329 P.3       1 <0>         2.3295
     29 O1         -2.2050    4.0202   -2.8320 O.2       1 <0>        -1.0674
     30 C26        -4.4287    4.3565   -4.3335 C.3       1 <0>        -0.7308
     31 C27        -5.0799    5.1611   -3.2068 C.3       1 <0>         0.1592
     32 H1         -4.3223    5.6465   -2.5741 H         1 <0>         0.0607
     33 C28        -6.0441    6.1878   -3.8046 C.3       1 <0>        -0.1886
     34 C29        -6.5923    7.0613   -2.7058 C.2       1 <0>         0.4653
     35 O2         -6.2473    6.8813   -1.5619 O.co2     1 <0>        -0.6342
     36 O3         -7.4639    8.0395   -2.9978 O.co2     1 <0>        -0.7880
     37 O4         -5.7995    4.2774   -2.3447 O.3       1 <0>        -0.5791
     38 O5         -3.8903    2.1465   -2.6909 O.3       1 <0>        -1.0758
     39 H2          2.4183    2.1831   -4.5130 H         1 <0>         0.0543
     40 H3          2.6691    3.8198   -5.2095 H         1 <0>         0.0614
     41 H4          3.0373    2.3604   -6.1899 H         1 <0>         0.0569
     42 H5          0.2483    3.1931   -5.2024 H         1 <0>         0.1055
     43 H6         -0.1777    3.6155   -7.6200 H         1 <0>         0.0481
     44 H7          1.5271    3.1937   -7.9974 H         1 <0>         0.0611
     45 H8          1.1589    4.6531   -7.0169 H         1 <0>         0.0594
     46 H9          3.4238   -0.7597   -8.1097 H         1 <0>         0.1251
     47 H10         4.4371   -1.9732   -9.9990 H         1 <0>         0.1211
     48 H11         3.0071   -3.1396  -11.6245 H         1 <0>         0.1190
     49 H12         0.5582   -3.0803  -11.3922 H         1 <0>         0.1219
     50 H13        -1.1752   -0.7574   -9.2421 H         1 <0>         0.0726
     51 H14        -1.3594   -2.0700  -10.4544 H         1 <0>         0.0726
     52 H15        -2.4387   -2.4408   -8.1422 H         1 <0>         0.0702
     53 H16        -1.3977   -3.7593   -8.7781 H         1 <0>         0.0682
     54 H17         0.3975   -3.1880   -7.3442 H         1 <0>         0.0723
     55 H18        -1.0747   -3.0927   -6.3194 H         1 <0>         0.0786
     56 H19        -0.7682   -1.3382   -3.2166 H         1 <0>         0.1332
     57 H20        -2.5495   -2.4391   -1.9263 H         1 <0>         0.1392
     58 H21        -5.1029   -2.3463   -5.3477 H         1 <0>         0.1343
     59 H22        -3.3334   -1.2376   -6.6475 H         1 <0>         0.1258
     60 H23        -1.5655    0.8378   -3.6655 H         1 <0>         0.0903
     61 H24        -0.4238    2.2016   -3.9168 H         1 <0>         0.0893
     62 H25        -1.8785    3.1333   -5.6789 H         1 <0>         0.0654
     63 H26        -2.9956    1.7350   -5.5259 H         1 <0>         0.0677
     64 H27        -3.9503    5.0444   -5.0462 H         1 <0>         0.0668
     65 H28        -5.1971    3.7657   -4.8536 H         1 <0>         0.0682
     66 H29        -5.5088    6.8111   -4.5359 H         1 <0>         0.0576
     67 H30        -6.8724    5.6650   -4.3051 H         1 <0>         0.0608
     68 H31        -6.3369    4.6770   -1.4720 H         1 <0>         0.3986
@<TRIPOS>BOND
     1    1    2 1
     2    1   39 1
     3    1   40 1
     4    1   41 1
     5    2    3 1
     6    2    4 1
     7    2   42 1
     8    3   43 1
     9    3   44 1
    10    3   45 1
    11    4    9 ar
    12    4    5 ar
    13    5    6 ar
    14    5   26 1
    15    6    7 ar
    16    6   19 1
    17    7   18 1
    18    7    8 ar
    19    8    9 ar
    20    8   10 1
    21   10   15 ar
    22   10   11 ar
    23   11   12 ar
    24   11   46 1
    25   12   13 ar
    26   12   47 1
    27   13   14 ar
    28   13   48 1
    29   14   15 ar
    30   14   49 1
    31   15   16 1
    32   16   17 1
    33   16   50 1
    34   16   51 1
    35   17   18 1
    36   17   52 1
    37   17   53 1
    38   18   54 1
    39   18   55 1
    40   19   24 ar
    41   19   20 ar
    42   20   21 ar
    43   20   56 1
    44   21   22 ar
    45   21   57 1
    46   22   23 ar
    47   22   25 1
    48   23   24 ar
    49   23   58 1
    50   24   59 1
    51   26   27 1
    52   26   60 1
    53   26   61 1
    54   27   28 1
    55   27   62 1
    56   27   63 1
    57   28   29 2
    58   28   30 1
    59   28   38 1
    60   30   31 1
    61   30   64 1
    62   30   65 1
    63   31   32 1
    64   31   33 1
    65   31   37 1
    66   33   34 1
    67   33   66 1
    68   33   67 1
    69   34   35 2
    70   34   36 1
    71   37   68 1
@<TRIPOS>MOLECULE
ZINC13348445
   49    50     0     0     0
SMALL
USER_CHARGES

@<TRIPOS>ATOM
      1 C1         -0.0081    1.4635   -0.5499 C.3       1 <0>        -0.1773
      2 C2          0.0168    0.0958    0.1353 C.3       1 <0>         0.1121
      3 N1         -1.3371   -0.4635    0.1586 N.pl3     1 <0>        -0.9926
      4 C3         -2.0225   -0.7754   -1.0980 C.3       1 <0>         0.1177
      5 C4         -1.6120   -2.1717   -1.5699 C.3       1 <0>        -0.1706
      6 S1         -2.0927   -0.7429    1.6054 S.o2      1 <0>         2.6889
      7 O1         -3.0577   -1.7591    1.3700 O.2       1 <0>        -0.9583
      8 O2         -1.0672   -0.8772    2.5799 O.2       1 <0>        -0.9545
      9 C5         -2.9892    0.7174    2.0156 C.ar      1 <0>        -0.6187
     10 C6         -4.3703    0.6993    2.0258 C.ar      1 <0>        -0.0700
     11 C7         -5.0762    1.8506    2.3497 C.ar      1 <0>         0.2748
     12 C8         -4.3907    3.0176    2.6626 C.ar      1 <0>        -0.2151
     13 C9         -3.0099    3.0300    2.6508 C.ar      1 <0>        -0.0603
     14 C10        -2.3090    1.8798    2.3328 C.ar      1 <0>        -0.0638
     15 Cl1        -0.5731    1.8972    2.3254 Cl        1 <0>        -0.0881
     16 N2         -6.4735    1.8352    2.3604 N.2       1 <0>        -1.0797
     17 S2         -7.3137    3.2089    2.7468 S.o2      1 <0>         2.6122
     18 O3         -7.0324    3.4867    4.1117 O.2       1 <0>        -1.0290
     19 O4         -7.0579    4.1466    1.7101 O.2       1 <0>        -1.0304
     20 C11        -9.0284    2.8136    2.6564 C.ar      1 <0>        -0.6322
     21 C12        -9.7093    2.9720    1.4617 C.ar      1 <0>        -0.0232
     22 C13       -11.0511    2.6648    1.3828 C.ar      1 <0>        -0.1417
     23 C14       -11.7243    2.1920    2.5143 C.ar      1 <0>         0.0018
     24 C15       -11.0289    2.0348    3.7180 C.ar      1 <0>        -0.1453
     25 C16        -9.6860    2.3410    3.7790 C.ar      1 <0>        -0.0208
     26 C17       -13.1559    1.8625    2.4390 C.2       1 <0>        -0.1177
     27 C18       -13.8027    1.4060    3.5342 C.2       1 <0>        -0.1622
     28 C19       -15.1807    1.0888    3.4617 C.2       1 <0>         0.5029
     29 O5        -15.7866    1.2281    2.4062 O.co2     1 <0>        -0.6962
     30 O6        -15.7670    0.6750    4.4544 O.co2     1 <0>        -0.7005
     31 H1          1.0016    1.8730   -0.5805 H         1 <0>         0.0599
     32 H2         -0.3867    1.3539   -1.5661 H         1 <0>         0.0556
     33 H3         -0.6569    2.1380    0.0088 H         1 <0>         0.0735
     34 H4          0.6773   -0.5743   -0.4150 H         1 <0>         0.0660
     35 H5          0.3813    0.2075    1.1565 H         1 <0>         0.0971
     36 H6         -3.1007   -0.7475   -0.9405 H         1 <0>         0.0854
     37 H7         -1.7467   -0.0406   -1.8544 H         1 <0>         0.0789
     38 H8         -1.8877   -2.9065   -0.8135 H         1 <0>         0.0629
     39 H9         -2.1219   -2.4038   -2.5048 H         1 <0>         0.0652
     40 H10        -0.5338   -2.1996   -1.7274 H         1 <0>         0.0547
     41 H11        -4.9007   -0.2093    1.7818 H         1 <0>         0.1442
     42 H12        -4.9372    3.9145    2.9145 H         1 <0>         0.1137
     43 H13        -2.4765    3.9372    2.8936 H         1 <0>         0.1217
     44 H14        -9.1882    3.3374    0.5892 H         1 <0>         0.1331
     45 H15       -11.5810    2.7893    0.4500 H         1 <0>         0.1282
     46 H16       -11.5416    1.6706    4.5960 H         1 <0>         0.1309
     47 H17        -9.1466    2.2157    4.7062 H         1 <0>         0.1338
     48 H18       -13.6901    1.9853    1.5084 H         1 <0>         0.1300
     49 H19       -13.2685    1.2832    4.4648 H         1 <0>         0.1028
@<TRIPOS>BOND
     1    1    2 1
     2    1   31 1
     3    1   32 1
     4    1   33 1
     5    2    3 1
     6    2   34 1
     7    2   35 1
     8    3    4 1
     9    3    6 1
    10    4    5 1
    11    4   36 1
    12    4   37 1
    13    5   38 1
    14    5   39 1
    15    5   40 1
    16    6    7 2
    17    6    8 2
    18    6    9 1
    19    9   14 ar
    20    9   10 ar
    21   10   11 ar
    22   10   41 1
    23   11   12 ar
    24   11   16 1
    25   12   13 ar
    26   12   42 1
    27   13   14 ar
    28   13   43 1
    29   14   15 1
    30   16   17 1
    31   17   18 2
    32   17   19 2
    33   17   20 1
    34   20   25 ar
    35   20   21 ar
    36   21   22 ar
    37   21   44 1
    38   22   23 ar
    39   22   45 1
    40   23   24 ar
    41   23   26 1
    42   24   25 ar
    43   24   46 1
    44   25   47 1
    45   26   27 2
    46   26   48 1
    47   27   28 1
    48   27   49 1
    49   28   29 2
    50   28   30 1
@<TRIPOS>MOLECULE
ZINC13232016
   48    51     0     0     0
SMALL
USER_CHARGES

@<TRIPOS>ATOM
      1 C1         -0.7726    1.2615    0.2519 C.3       1 <0>        -0.1001
      2 C2         -0.5271   -0.2243    0.1951 C.2       1 <0>        -0.0570
      3 C3         -0.5061   -0.8859   -1.0327 C.2       1 <0>        -0.2259
      4 C4         -0.6987   -0.3345   -2.3942 C.2       1 <0>         0.5623
      5 O1         -0.9106    0.8530   -2.5632 O.2       1 <0>        -0.5215
      6 N1         -0.6329   -1.1806   -3.4407 N.am      1 <0>        -0.6322
      7 H1         -0.7565   -0.8357   -4.3388 H         1 <0>         0.4165
      8 C5         -0.3973   -2.5037   -3.2644 C.2       1 <0>         0.3974
      9 N2         -0.2231   -3.0223   -2.0792 N.2       1 <0>        -0.4598
     10 C6         -0.2677   -2.2790   -0.9808 C.2       1 <0>         0.0544
     11 S1         -0.0861   -2.6021    0.7552 S.3       1 <0>         0.1922
     12 C7         -0.3165   -0.9367    1.3542 C.2       1 <0>        -0.1737
     13 C8         -0.2911   -0.4650    2.6914 C.2       1 <0>         0.5555
     14 O2         -0.4728    0.7237    2.9252 O.co2     1 <0>        -0.6618
     15 O3         -0.0875   -1.2463    3.6128 O.co2     1 <0>        -0.6789
     16 C9         -0.3349   -3.4027   -4.4723 C.3       1 <0>        -0.0777
     17 S2         -0.0091   -5.1065   -3.9418 S.3       1 <0>         0.1065
     18 C10         0.0339   -6.0209   -5.4474 C.2       1 <0>         0.1496
     19 N3         -0.1308   -5.5373   -6.6579 N.2       1 <0>        -0.3100
     20 N4         -0.0377   -6.4799   -7.5264 N.2       1 <0>        -0.2848
     21 C11         0.1922   -7.6234   -6.9239 C.2       1 <0>         0.2235
     22 N5          0.2506   -7.3639   -5.5741 N.pl3     1 <0>        -0.4070
     23 C12         0.4917   -8.3272   -4.4970 C.3       1 <0>         0.0138
     24 C13        -0.8255   -8.8647   -3.9997 C.2       1 <0>         0.4885
     25 O4         -1.8688   -8.4789   -4.4988 O.co2     1 <0>        -0.6627
     26 O5         -0.8477   -9.6854   -3.0983 O.co2     1 <0>        -0.6776
     27 C14         0.3614   -8.9404   -7.5735 C.ar      1 <0>        -0.0373
     28 C15         0.2056  -10.1123   -6.8310 C.ar      1 <0>        -0.0626
     29 C16         0.3638  -11.3385   -7.4406 C.ar      1 <0>        -0.1449
     30 C17         0.6780  -11.4090   -8.7914 C.ar      1 <0>         0.1286
     31 C18         0.8338  -10.2457   -9.5335 C.ar      1 <0>        -0.2118
     32 C19         0.6717   -9.0157   -8.9326 C.ar      1 <0>        -0.0414
     33 O6          0.8340  -12.6195   -9.3884 O.3       1 <0>        -0.3176
     34 C20         1.1568  -12.6195  -10.7805 C.3       1 <0>         0.0276
     35 H2          0.1786    1.7897    0.1869 H         1 <0>         0.0590
     36 H3         -1.4098    1.5566   -0.5817 H         1 <0>         0.0627
     37 H4         -1.2642    1.5128    1.1917 H         1 <0>         0.0954
     38 H5         -1.2856   -3.3632   -5.0040 H         1 <0>         0.1292
     39 H6          0.4650   -3.0686   -5.1330 H         1 <0>         0.1272
     40 H7          1.1004   -9.1490   -4.8740 H         1 <0>         0.1004
     41 H8          1.0149   -7.8333   -3.6782 H         1 <0>         0.1003
     42 H9         -0.0381  -10.0582   -5.7802 H         1 <0>         0.1471
     43 H10         0.2434  -12.2455   -6.8669 H         1 <0>         0.1361
     44 H11         1.0783  -10.3047  -10.5838 H         1 <0>         0.1306
     45 H12         0.7887   -8.1114   -9.5115 H         1 <0>         0.1368
     46 H13         0.3650  -12.1183  -11.3371 H         1 <0>         0.0549
     47 H14         2.0987  -12.0933  -10.9350 H         1 <0>         0.0543
     48 H15         1.2530  -13.6471  -11.1311 H         1 <0>         0.0960
@<TRIPOS>BOND
     1    1    2 1
     2    1   35 1
     3    1   36 1
     4    1   37 1
     5    2   12 2
     6    2    3 1
     7    3   10 2
     8    3    4 1
     9    4    5 2
    10    4    6 am
    11    6    7 1
    12    6    8 1
    13    8    9 2
    14    8   16 1
    15    9   10 1
    16   10   11 1
    17   11   12 1
    18   12   13 1
    19   13   14 2
    20   13   15 1
    21   16   17 1
    22   16   38 1
    23   16   39 1
    24   17   18 1
    25   18   22 1
    26   18   19 2
    27   19   20 1
    28   20   21 2
    29   21   22 1
    30   21   27 1
    31   22   23 1
    32   23   24 1
    33   23   40 1
    34   23   41 1
    35   24   25 2
    36   24   26 1
    37   27   32 ar
    38   27   28 ar
    39   28   29 ar
    40   28   42 1
    41   29   30 ar
    42   29   43 1
    43   30   31 ar
    44   30   33 1
    45   31   32 ar
    46   31   44 1
    47   32   45 1
    48   33   34 1
    49   34   46 1
    50   34   47 1
    51   34   48 1
@<TRIPOS>MOLECULE
ZINC16932013
   52    54     0     0     0
SMALL
USER_CHARGES

@<TRIPOS>ATOM
      1 C1         -0.4028   -0.2078    0.4732 C.3       1 <0>        -0.1482
      2 C2         -0.3944   -1.7073    0.1694 C.3       1 <0>        -0.1018
      3 C3         -1.8266   -2.1859   -0.0764 C.3       1 <0>         0.0129
      4 H1         -2.4504   -1.9188    0.7766 H         1 <0>         0.0668
      5 C4         -1.8327   -3.6824   -0.2541 C.2       1 <0>         0.4798
      6 O1         -1.5171   -4.4078    0.6736 O.co2     1 <0>        -0.6946
      7 O2         -2.1531   -4.1677   -1.3257 O.co2     1 <0>        -0.6721
      8 O3         -2.3409   -1.5641   -1.2558 O.3       1 <0>        -0.2925
      9 C5         -3.6911   -1.4402   -1.3494 C.ar      1 <0>         0.1599
     10 C6         -4.5044   -1.9236   -0.3321 C.ar      1 <0>        -0.1820
     11 C7         -5.8792   -1.8017   -0.4202 C.ar      1 <0>        -0.0770
     12 C8         -6.4541   -1.1989   -1.5194 C.ar      1 <0>        -0.1422
     13 C9         -5.6443   -0.7080   -2.5496 C.ar      1 <0>        -0.0548
     14 C10        -4.2539   -0.8277   -2.4549 C.ar      1 <0>        -0.1307
     15 C11        -6.2518   -0.0645   -3.7234 C.2       1 <0>         0.0568
     16 C12        -7.5531    0.3165   -3.6904 C.2       1 <0>        -0.2080
     17 C13        -8.4121    0.8153   -4.7837 C.2       1 <0>         0.5607
     18 O4         -7.9903    0.9406   -5.9183 O.2       1 <0>        -0.5050
     19 N1         -9.6609    1.1189   -4.4724 N.am      1 <0>        -0.5349
     20 C14       -10.1199    0.9707   -3.1840 C.2       1 <0>         0.3574
     21 N2        -11.3223    1.2247   -2.7088 N.2       1 <0>        -0.3835
     22 C15       -11.5747    1.0726   -1.3815 C.ar      1 <0>         0.1164
     23 C16       -10.7677    1.7089   -0.4327 C.ar      1 <0>        -0.1563
     24 C17       -11.0285    1.5509    0.9095 C.ar      1 <0>        -0.1095
     25 C18       -12.0893    0.7624    1.3347 C.ar      1 <0>        -0.1430
     26 C19       -12.8982    0.1258    0.4214 C.ar      1 <0>        -0.0759
     27 C20       -12.6582    0.2752   -0.9490 C.ar      1 <0>        -0.1170
     28 C21       -13.5206   -0.3959   -1.9289 C.2       1 <0>         0.5180
     29 O5        -14.4577   -1.0855   -1.5486 O.co2     1 <0>        -0.6956
     30 O6        -13.3026   -0.2660   -3.1264 O.co2     1 <0>        -0.6597
     31 S1         -8.6927    0.3430   -2.3141 S.3       1 <0>        -0.0352
     32 C22       -10.5653    1.6191   -5.5107 C.3       1 <0>         0.1083
     33 C23       -11.2842    0.4412   -6.1715 C.3       1 <0>        -0.1685
     34 H2          0.6176    0.1332    0.6483 H         1 <0>         0.0489
     35 H3         -0.8260    0.3322   -0.3738 H         1 <0>         0.0568
     36 H4         -1.0060   -0.0205    1.3616 H         1 <0>         0.0488
     37 H5          0.2088   -1.8946   -0.7190 H         1 <0>         0.0658
     38 H6          0.0289   -2.2473    1.0164 H         1 <0>         0.0826
     39 H7         -4.0610   -2.3972    0.5313 H         1 <0>         0.1304
     40 H8         -6.5050   -2.1803    0.3745 H         1 <0>         0.1263
     41 H9         -7.5281   -1.1061   -1.5851 H         1 <0>         0.1355
     42 H10        -3.6222   -0.4477   -3.2442 H         1 <0>         0.1328
     43 H11        -5.6620    0.1048   -4.6121 H         1 <0>         0.1551
     44 H12        -9.9397    2.3238   -0.7532 H         1 <0>         0.1201
     45 H13       -10.4024    2.0442    1.6382 H         1 <0>         0.1177
     46 H14       -12.2811    0.6474    2.3913 H         1 <0>         0.1161
     47 H15       -13.7209   -0.4854    0.7622 H         1 <0>         0.1308
     48 H16       -11.3000    2.2873   -5.0615 H         1 <0>         0.0954
     49 H17        -9.9915    2.1621   -6.2616 H         1 <0>         0.0849
     50 H18       -11.8580   -0.1019   -5.4206 H         1 <0>         0.0855
     51 H19       -11.9571    0.8133   -6.9440 H         1 <0>         0.0667
     52 H20       -10.5495   -0.2271   -6.6207 H         1 <0>         0.0508
@<TRIPOS>BOND
     1    1    2 1
     2    1   34 1
     3    1   35 1
     4    1   36 1
     5    2    3 1
     6    2   37 1
     7    2   38 1
     8    3    4 1
     9    3    5 1
    10    3    8 1
    11    5    6 2
    12    5    7 1
    13    8    9 1
    14    9   14 ar
    15    9   10 ar
    16   10   11 ar
    17   10   39 1
    18   11   12 ar
    19   11   40 1
    20   12   13 ar
    21   12   41 1
    22   13   14 ar
    23   13   15 1
    24   14   42 1
    25   15   16 2
    26   15   43 1
    27   16   31 1
    28   16   17 1
    29   17   18 2
    30   17   19 am
    31   19   20 1
    32   19   32 1
    33   20   21 2
    34   20   31 1
    35   21   22 1
    36   22   27 ar
    37   22   23 ar
    38   23   24 ar
    39   23   44 1
    40   24   25 ar
    41   24   45 1
    42   25   26 ar
    43   25   46 1
    44   26   27 ar
    45   26   47 1
    46   27   28 1
    47   28   29 2
    48   28   30 1
    49   32   33 1
    50   32   48 1
    51   32   49 1
    52   33   50 1
    53   33   51 1
    54   33   52 1
@<TRIPOS>MOLECULE
ZINC05618403
   43    46     0     0     0
SMALL
USER_CHARGES
N-[(5-methyl-2-furyl)methyleneamino]-4,5-diphenyl-thiazol-2-amine
@<TRIPOS>ATOM
      1 C1         11.2325   -2.5258   -0.2136 C.3       1 <0>        -0.0815
      2 C2         10.5087   -1.8821   -1.3681 C.2       1 <0>         0.0173
      3 C3         10.7944   -2.0633   -2.6733 C.2       1 <0>        -0.2180
      4 C4          9.8792   -1.2870   -3.4089 C.2       1 <0>        -0.1461
      5 C5          9.0788   -0.6578   -2.5000 C.2       1 <0>         0.0074
      6 O1          9.4726   -1.0331   -1.2665 O.3       1 <0>        -0.1566
      7 C6          7.9791    0.2606   -2.8109 C.2       1 <0>         0.1517
      8 N1          7.2845    0.7934   -1.8481 N.2       1 <0>        -0.2254
      9 N2          6.2337    1.6710   -2.1452 N.pl3     1 <0>        -0.5180
     10 C7          5.4958    2.2370   -1.1226 C.2       1 <0>         0.3784
     11 N3          4.4786    3.0778   -1.1957 N.2       1 <0>        -0.5503
     12 C8          3.8758    3.5290   -0.1099 C.2       1 <0>         0.1480
     13 C9          4.3306    3.1027    1.1340 C.2       1 <0>        -0.1735
     14 S1          5.6729    2.0280    0.6435 S.3       1 <0>         0.0738
     15 C10         3.8442    3.4470    2.4838 C.ar      1 <0>         0.0051
     16 C11         3.6379    2.4427    3.4328 C.ar      1 <0>        -0.1046
     17 C12         3.1831    2.7720    4.6926 C.ar      1 <0>        -0.1170
     18 C13         2.9309    4.0933    5.0174 C.ar      1 <0>        -0.1124
     19 C14         3.1326    5.0933    4.0823 C.ar      1 <0>        -0.1159
     20 C15         3.5875    4.7789    2.8187 C.ar      1 <0>        -0.0881
     21 C16         2.7379    4.4712   -0.2150 C.ar      1 <0>        -0.0227
     22 C17         2.7769    5.5162   -1.1381 C.ar      1 <0>        -0.0868
     23 C18         1.7112    6.3872   -1.2353 C.ar      1 <0>        -0.1239
     24 C19         0.6105    6.2325   -0.4115 C.ar      1 <0>        -0.1118
     25 C20         0.5683    5.2014    0.5100 C.ar      1 <0>        -0.1204
     26 C21         1.6252    4.3205    0.6127 C.ar      1 <0>        -0.0909
     27 H1         10.7858   -2.1962    0.7245 H         1 <0>         0.0793
     28 H2         11.1519   -3.6099   -0.2932 H         1 <0>         0.0908
     29 H3         12.2832   -2.2369   -0.2369 H         1 <0>         0.0908
     30 H4         11.5751   -2.6901   -3.0783 H         1 <0>         0.1562
     31 H5          9.8228   -1.2036   -4.4842 H         1 <0>         0.1589
     32 H6          7.7456    0.4949   -3.8390 H         1 <0>         0.1547
     33 H7          6.0239    1.8815   -3.0686 H         1 <0>         0.4080
     34 H8          3.8346    1.4111    3.1808 H         1 <0>         0.1236
     35 H9          3.0278    1.9972    5.4288 H         1 <0>         0.1263
     36 H10         2.5746    4.3453    6.0053 H         1 <0>         0.1244
     37 H11         2.9337    6.1224    4.3426 H         1 <0>         0.1264
     38 H12         3.7444    5.5603    2.0899 H         1 <0>         0.1238
     39 H13         3.6376    5.6406   -1.7786 H         1 <0>         0.1237
     40 H14         1.7383    7.1940   -1.9527 H         1 <0>         0.1241
     41 H15        -0.2195    6.9193   -0.4884 H         1 <0>         0.1229
     42 H16        -0.2936    5.0860    1.1505 H         1 <0>         0.1248
     43 H17         1.5910    3.5158    1.3322 H         1 <0>         0.1234
@<TRIPOS>BOND
     1    1    2 1
     2    1   27 1
     3    1   28 1
     4    1   29 1
     5    2    6 1
     6    2    3 2
     7    3    4 1
     8    3   30 1
     9    4    5 2
    10    4   31 1
    11    5    6 1
    12    5    7 1
    13    7    8 2
    14    7   32 1
    15    8    9 1
    16    9   10 1
    17    9   33 1
    18   10   14 1
    19   10   11 2
    20   11   12 1
    21   12   13 2
    22   12   21 1
    23   13   14 1
    24   13   15 1
    25   15   20 ar
    26   15   16 ar
    27   16   17 ar
    28   16   34 1
    29   17   18 ar
    30   17   35 1
    31   18   19 ar
    32   18   36 1
    33   19   20 ar
    34   19   37 1
    35   20   38 1
    36   21   26 ar
    37   21   22 ar
    38   22   23 ar
    39   22   39 1
    40   23   24 ar
    41   23   40 1
    42   24   25 ar
    43   24   41 1
    44   25   26 ar
    45   25   42 1
    46   26   43 1
@<TRIPOS>MOLECULE
ZINC12848724
   37    38     0     0     0
SMALL
USER_CHARGES
(E)-N-[(3R)-1,1-dioxothiolan-3-yl]-3-[4-(trifluoromethylsulfanyl)phenyl]prop-2-enamide
@<TRIPOS>ATOM
      1 C1          0.4683    1.0676    5.1721 C.ar      1 <0>        -0.0718
      2 C2         -0.2735    1.5760    4.1442 C.ar      1 <0>        -0.0831
      3 C3          0.0945    1.3216    2.8247 C.ar      1 <0>        -0.0953
      4 C4          1.2167    0.5435    2.5481 C.ar      1 <0>        -0.1227
      5 C5          1.9670    0.0362    3.5704 C.ar      1 <0>        -0.0765
      6 C6          1.6004    0.2896    4.8983 C.ar      1 <0>        -0.0687
      7 C7          2.4013   -0.2586    6.0007 C.2       1 <0>        -0.0109
      8 C8          3.4928   -1.0087    5.7346 C.2       1 <0>        -0.2139
      9 C9          4.2898   -1.5543    6.8316 C.2       1 <0>         0.5503
     10 O1          3.9700   -1.3327    7.9851 O.2       1 <0>        -0.5361
     11 N1          5.3788   -2.3026    6.5661 N.am      1 <0>        -0.7144
     12 C10         6.1777   -2.8495    7.6657 C.3       1 <0>         0.1416
     13 H1          5.5271   -3.1026    8.5028 H         1 <0>         0.1157
     14 C11         7.2218   -1.8136    8.1143 C.3       1 <0>        -0.1409
     15 C12         8.2660   -2.4833    9.0396 C.3       1 <0>        -0.5737
     16 S1          8.2586   -4.2286    8.4598 S.o2      1 <0>         2.3788
     17 O2          7.8143   -5.0656    9.5187 O.2       1 <0>        -0.9278
     18 O3          9.4954   -4.5090    7.8188 O.2       1 <0>        -0.9309
     19 C13         6.9333   -4.1210    7.1843 C.3       1 <0>        -0.5962
     20 S2         -0.8660    1.9798    1.5022 S.3       1 <0>        -0.0163
     21 C14        -0.0169    1.3948    0.0097 C.3       1 <0>         0.4511
     22 F1          0.0021   -0.0041    0.0020 F         1 <0>        -0.1623
     23 F2          1.2956    1.8790   -0.0002 F         1 <0>        -0.1624
     24 F3         -0.6935    1.8582   -1.1237 F         1 <0>        -0.1426
     25 H2          0.1826    1.2655    6.1946 H         1 <0>         0.1431
     26 H3         -1.1464    2.1762    4.3544 H         1 <0>         0.1399
     27 H4          1.4959    0.3446    1.5240 H         1 <0>         0.1282
     28 H5          2.8393   -0.5632    3.3551 H         1 <0>         0.1375
     29 H6          2.1176   -0.0620    7.0240 H         1 <0>         0.1422
     30 H7          3.7766   -1.2052    4.7112 H         1 <0>         0.1326
     31 H8          5.6337   -2.4792    5.6470 H         1 <0>         0.4080
     32 H9          7.7244   -1.4036    7.2382 H         1 <0>         0.0906
     33 H10         6.7238   -1.0083    8.6543 H         1 <0>         0.1030
     34 H11         7.9550   -2.4211   10.0825 H         1 <0>         0.1434
     35 H12         9.2503   -2.0351    8.9041 H         1 <0>         0.1456
     36 H13         6.2868   -4.9981    7.2127 H         1 <0>         0.1490
     37 H14         7.3545   -3.9762    6.1895 H         1 <0>         0.1458
@<TRIPOS>BOND
     1    1    6 ar
     2    1    2 ar
     3    1   25 1
     4    2    3 ar
     5    2   26 1
     6    3    4 ar
     7    3   20 1
     8    4    5 ar
     9    4   27 1
    10    5    6 ar
    11    5   28 1
    12    6    7 1
    13    7    8 2
    14    7   29 1
    15    8    9 1
    16    8   30 1
    17    9   10 2
    18    9   11 am
    19   11   12 1
    20   11   31 1
    21   12   13 1
    22   12   19 1
    23   12   14 1
    24   14   15 1
    25   14   32 1
    26   14   33 1
    27   15   16 1
    28   15   34 1
    29   15   35 1
    30   16   17 2
    31   16   18 2
    32   16   19 1
    33   19   36 1
    34   19   37 1
    35   20   21 1
    36   21   22 1
    37   21   23 1
    38   21   24 1
@<TRIPOS>MOLECULE
ZINC35293533
   46    49     0     0     0
SMALL
USER_CHARGES

@<TRIPOS>ATOM
      1 C1         -0.9313    1.4044   -0.5105 C.3       1 <0>        -0.1210
      2 C2         -0.5902   -0.0433   -0.2676 C.ar      1 <0>        -0.0570
      3 C3          0.6377   -0.5393   -0.6668 C.ar      1 <0>        -0.1007
      4 C4          0.9533   -1.8652   -0.4457 C.ar      1 <0>        -0.1097
      5 C5          0.0362   -2.7011    0.1789 C.ar      1 <0>         0.1004
      6 C6         -1.1956   -2.1998    0.5790 C.ar      1 <0>        -0.0512
      7 C7         -1.5032   -0.8713    0.3591 C.ar      1 <0>        -0.1098
      8 C8         -2.1938   -3.1030    1.2564 C.3       1 <0>        -0.1160
      9 N1          0.3528   -4.0455    0.4041 N.pl3     1 <0>        -0.2998
     10 C9          0.6594   -4.9733   -0.5566 C.2       1 <0>         0.0299
     11 C10         0.9049   -6.1655    0.0891 C.2       1 <0>        -0.1565
     12 C11         0.7411   -5.9444    1.4666 C.2       1 <0>         0.1501
     13 N2          0.4180   -4.6785    1.6514 N.2       1 <0>        -0.2277
     14 C12         0.9091   -6.9579    2.5307 C.2       1 <0>        -0.0966
     15 C13         0.7620   -6.8196    3.8845 C.2       1 <0>        -0.1191
     16 C14         0.9731   -7.9182    4.6896 C.2       1 <0>        -0.1606
     17 C15         1.3190   -9.0999    4.1183 C.2       1 <0>        -0.1644
     18 S1          1.3489   -8.6820    2.3830 S.3       1 <0>         0.0910
     19 C16         0.7152   -4.7400   -2.0078 C.2       1 <0>         0.5899
     20 O1          1.1160   -5.6167   -2.7498 O.2       1 <0>        -0.4908
     21 N3          0.3223   -3.5549   -2.5155 N.am      1 <0>        -0.6649
     22 C17         0.4272   -3.3131   -3.8900 C.ar      1 <0>         0.1119
     23 C18         0.4091   -4.3731   -4.7863 C.ar      1 <0>        -0.1073
     24 C19         0.5128   -4.1314   -6.1425 C.ar      1 <0>        -0.1065
     25 C20         0.6350   -2.8354   -6.6089 C.ar      1 <0>        -0.1060
     26 C21         0.6535   -1.7761   -5.7203 C.ar      1 <0>        -0.1322
     27 C22         0.5439   -2.0100   -4.3616 C.ar      1 <0>         0.0691
     28 F1          0.5563   -0.9748   -3.4936 F         1 <0>        -0.1350
     29 H1         -0.6117    2.0013    0.3437 H         1 <0>         0.0787
     30 H2         -0.4204    1.7523   -1.4083 H         1 <0>         0.0739
     31 H3         -2.0084    1.5067   -0.6427 H         1 <0>         0.0726
     32 H4          1.3502    0.1111   -1.1523 H         1 <0>         0.1392
     33 H5          1.9120   -2.2520   -0.7583 H         1 <0>         0.1326
     34 H6         -2.4595   -0.4798    0.6733 H         1 <0>         0.1389
     35 H7         -1.9752   -3.1506    2.3232 H         1 <0>         0.0841
     36 H8         -3.1992   -2.7089    1.1088 H         1 <0>         0.0744
     37 H9         -2.1288   -4.1029    0.8273 H         1 <0>         0.0650
     38 H10         1.1741   -7.1007   -0.3791 H         1 <0>         0.1710
     39 H11         0.4863   -5.8677    4.3137 H         1 <0>         0.1392
     40 H12         0.8648   -7.8398    5.7613 H         1 <0>         0.1395
     41 H13         1.5204  -10.0496    4.5916 H         1 <0>         0.1915
     42 H14        -0.0331   -2.8696   -1.9282 H         1 <0>         0.4148
     43 H15         0.3145   -5.3860   -4.4236 H         1 <0>         0.1615
     44 H16         0.4988   -4.9561   -6.8396 H         1 <0>         0.1360
     45 H17         0.7166   -2.6501   -7.6697 H         1 <0>         0.1360
     46 H18         0.7490   -0.7651   -6.0878 H         1 <0>         0.1411
@<TRIPOS>BOND
     1    1    2 1
     2    1   29 1
     3    1   30 1
     4    1   31 1
     5    2    7 ar
     6    2    3 ar
     7    3    4 ar
     8    3   32 1
     9    4    5 ar
    10    4   33 1
    11    5    6 ar
    12    5    9 1
    13    6    7 ar
    14    6    8 1
    15    7   34 1
    16    8   35 1
    17    8   36 1
    18    8   37 1
    19    9   13 1
    20    9   10 1
    21   10   11 2
    22   10   19 1
    23   11   12 1
    24   11   38 1
    25   12   13 2
    26   12   14 1
    27   14   18 1
    28   14   15 2
    29   15   16 1
    30   15   39 1
    31   16   17 2
    32   16   40 1
    33   17   18 1
    34   17   41 1
    35   19   20 2
    36   19   21 am
    37   21   22 1
    38   21   42 1
    39   22   27 ar
    40   22   23 ar
    41   23   24 ar
    42   23   43 1
    43   24   25 ar
    44   24   44 1
    45   25   26 ar
    46   25   45 1
    47   26   27 ar
    48   26   46 1
    49   27   28 1
@<TRIPOS>MOLECULE
ZINC46085336
   38    41     0     0     0
SMALL
USER_CHARGES

@<TRIPOS>ATOM
      1 C1          0.0160    1.3177    0.5909 C.ar      1 <0>        -0.1327
      2 C2          1.2003    2.0500    0.5738 C.ar      1 <0>        -0.0680
      3 C3          2.4008    1.4396    0.3653 C.ar      1 <0>        -0.1118
      4 C4          2.4466    0.0522    0.1650 C.ar      1 <0>         0.2039
      5 C5          1.2396   -0.6911    0.1833 C.ar      1 <0>        -0.1876
      6 C6          0.0242   -0.0327    0.3995 C.ar      1 <0>        -0.0711
      7 C7          1.3100   -2.0923   -0.0210 C.ar      1 <0>         0.3014
      8 N1          2.5016   -2.6391   -0.2192 N.ar      1 <0>        -0.5494
      9 C8          3.6091   -1.9030   -0.2284 C.ar      1 <0>         0.5858
     10 N2          3.6001   -0.5957   -0.0435 N.ar      1 <0>        -0.5243
     11 N3          4.8217   -2.5335   -0.4405 N.pl3     1 <0>        -0.5407
     12 N4          6.0066   -1.7861   -0.4559 N.2       1 <0>        -0.2006
     13 C9          7.1467   -2.3790   -0.6554 C.2       1 <0>         0.1375
     14 C10         8.3875   -1.5964   -0.6716 C.2       1 <0>        -0.1270
     15 C11         9.6877   -2.0264   -0.8702 C.2       1 <0>        -0.1194
     16 C12        10.6971   -1.0915   -0.8408 C.2       1 <0>        -0.1639
     17 C13        10.3892    0.2126   -0.6198 C.2       1 <0>        -0.1741
     18 S1          8.6133    0.1605   -0.4480 S.3       1 <0>         0.1136
     19 C14         0.0854   -2.9232   -0.0128 C.ar      1 <0>        -0.0543
     20 C15        -1.0544   -2.4976   -0.6963 C.ar      1 <0>        -0.0789
     21 C16        -2.1927   -3.2763   -0.6855 C.ar      1 <0>        -0.1111
     22 C17        -2.2061   -4.4784    0.0022 C.ar      1 <0>        -0.0172
     23 C18        -1.0781   -4.9055    0.6827 C.ar      1 <0>        -0.1121
     24 C19         0.0679   -4.1381    0.6737 C.ar      1 <0>        -0.0585
     25 Cl1        -3.6426   -5.4530    0.0119 Cl        1 <0>        -0.0596
     26 H1         -0.9216    1.8254    0.7624 H         1 <0>         0.1327
     27 H2          1.1668    3.1184    0.7279 H         1 <0>         0.1355
     28 H3          3.3112    2.0205    0.3541 H         1 <0>         0.1415
     29 H4         -0.9009   -0.5899    0.4152 H         1 <0>         0.1379
     30 H5          4.8517   -3.4931   -0.5785 H         1 <0>         0.4043
     31 H6          7.1802   -3.4475   -0.8091 H         1 <0>         0.1358
     32 H7          9.9049   -3.0700   -1.0436 H         1 <0>         0.1396
     33 H8         11.7235   -1.3919   -0.9916 H         1 <0>         0.1381
     34 H9         11.0503    1.0649   -0.5653 H         1 <0>         0.1884
     35 H10        -1.0452   -1.5601   -1.2324 H         1 <0>         0.1419
     36 H11        -3.0753   -2.9480   -1.2142 H         1 <0>         0.1432
     37 H12        -1.0943   -5.8436    1.2177 H         1 <0>         0.1417
     38 H13         0.9484   -4.4743    1.2010 H         1 <0>         0.1395
@<TRIPOS>BOND
     1    1    6 ar
     2    1    2 ar
     3    1   26 1
     4    2    3 ar
     5    2   27 1
     6    3    4 ar
     7    3   28 1
     8    4   10 ar
     9    4    5 ar
    10    5    6 ar
    11    5    7 ar
    12    6   29 1
    13    7    8 ar
    14    7   19 1
    15    8    9 ar
    16    9   10 ar
    17    9   11 1
    18   11   12 1
    19   11   30 1
    20   12   13 2
    21   13   14 1
    22   13   31 1
    23   14   18 1
    24   14   15 2
    25   15   16 1
    26   15   32 1
    27   16   17 2
    28   16   33 1
    29   17   18 1
    30   17   34 1
    31   19   24 ar
    32   19   20 ar
    33   20   21 ar
    34   20   35 1
    35   21   22 ar
    36   21   36 1
    37   22   23 ar
    38   22   25 1
    39   23   24 ar
    40   23   37 1
    41   24   38 1
@<TRIPOS>MOLECULE
ZINC62041600
   51    54     0     0     0
SMALL
USER_CHARGES

@<TRIPOS>ATOM
      1 C1          0.0507    2.0666    0.5779 C.3       1 <0>        -0.1063
      2 C2          0.0394    0.5751    0.3627 C.2       1 <0>        -0.1018
      3 C3         -0.1016    0.0571   -0.9354 C.2       1 <0>        -0.0956
      4 C4         -0.1109   -1.2896   -1.1263 C.2       1 <0>        -0.0747
      5 C5          0.0217   -2.1461   -0.0141 C.2       1 <0>         0.2334
      6 N1          0.0451   -3.4664    0.0925 N.2       1 <0>        -0.4759
      7 C6          0.1928   -3.8006    1.3841 C.2       1 <0>         0.1179
      8 C7          0.2650   -2.6546    2.1169 C.2       1 <0>        -0.0377
      9 N2          0.1577   -1.6106    1.2411 N.pl3     1 <0>        -0.3440
     10 C8          0.1705   -0.2567    1.4172 C.2       1 <0>         0.0497
     11 C9          0.4312   -2.5562    3.6115 C.3       1 <0>        -0.0626
     12 C10        -0.9203   -2.3918    4.2575 C.2       1 <0>         0.5070
     13 O1         -1.9202   -2.3579    3.5718 O.2       1 <0>        -0.4998
     14 N3         -1.0181   -2.2825    5.5973 N.am      1 <0>        -0.6687
     15 C11        -2.2771   -2.2078    6.2032 C.ar      1 <0>         0.1413
     16 C12        -3.3537   -1.6732    5.5073 C.ar      1 <0>        -0.1260
     17 C13        -4.5950   -1.6008    6.1081 C.ar      1 <0>        -0.1064
     18 C14        -4.7667   -2.0596    7.4014 C.ar      1 <0>        -0.1307
     19 C15        -3.6969   -2.5919    8.0970 C.ar      1 <0>        -0.1019
     20 C16        -2.4542   -2.6732    7.4993 C.ar      1 <0>        -0.1140
     21 C17        -1.2904   -3.2603    8.2556 C.3       1 <0>        -0.1166
     22 C18         0.2646   -5.1820    1.9218 C.ar      1 <0>        -0.0172
     23 C19        -0.4316   -5.5176    3.0814 C.ar      1 <0>        -0.0812
     24 C20        -0.3620   -6.8030    3.5778 C.ar      1 <0>        -0.1472
     25 C21         0.3987   -7.7596    2.9250 C.ar      1 <0>         0.1032
     26 C22         1.0927   -7.4302    1.7723 C.ar      1 <0>        -0.1170
     27 C23         1.0237   -6.1485    1.2654 C.ar      1 <0>        -0.0591
     28 C24         1.9192   -8.4747    1.0673 C.3       1 <0>        -0.1155
     29 F1          0.4641   -9.0171    3.4145 F         1 <0>        -0.1355
     30 H1          1.0740    2.4357    0.5105 H         1 <0>         0.0776
     31 H2         -0.5604    2.5484   -0.1853 H         1 <0>         0.0772
     32 H3         -0.3535    2.2944    1.5643 H         1 <0>         0.0697
     33 H4         -0.2026    0.7251   -1.7780 H         1 <0>         0.1454
     34 H5         -0.2191   -1.6988   -2.1199 H         1 <0>         0.1548
     35 H6          0.2824    0.1524    2.4104 H         1 <0>         0.1571
     36 H7          0.9044   -3.4643    3.9850 H         1 <0>         0.1255
     37 H8          1.0558   -1.6958    3.8518 H         1 <0>         0.1072
     38 H9         -0.2156   -2.2557    6.1415 H         1 <0>         0.4119
     39 H10        -3.2201   -1.3141    4.4975 H         1 <0>         0.1460
     40 H11        -5.4325   -1.1852    5.5675 H         1 <0>         0.1246
     41 H12        -5.7384   -2.0015    7.8692 H         1 <0>         0.1235
     42 H13        -3.8341   -2.9490    9.1070 H         1 <0>         0.1262
     43 H14        -0.7778   -2.4701    8.8042 H         1 <0>         0.0717
     44 H15        -1.6543   -4.0118    8.9562 H         1 <0>         0.0732
     45 H16        -0.5973   -3.7236    7.5534 H         1 <0>         0.0631
     46 H17        -1.0245   -4.7725    3.5910 H         1 <0>         0.1288
     47 H18        -0.9010   -7.0638    4.4766 H         1 <0>         0.1387
     48 H19         1.5612   -5.8938    0.3640 H         1 <0>         0.1384
     49 H20         1.3025   -8.9898    0.3308 H         1 <0>         0.0766
     50 H21         2.7598   -7.9952    0.5658 H         1 <0>         0.0742
     51 H22         2.2931   -9.1945    1.7954 H         1 <0>         0.0714
@<TRIPOS>BOND
     1    1    2 1
     2    1   30 1
     3    1   31 1
     4    1   32 1
     5    2   10 2
     6    2    3 1
     7    3    4 2
     8    3   33 1
     9    4    5 1
    10    4   34 1
    11    5    9 1
    12    5    6 2
    13    6    7 1
    14    7    8 2
    15    7   22 1
    16    8    9 1
    17    8   11 1
    18    9   10 1
    19   10   35 1
    20   11   12 1
    21   11   36 1
    22   11   37 1
    23   12   13 2
    24   12   14 am
    25   14   15 1
    26   14   38 1
    27   15   20 ar
    28   15   16 ar
    29   16   17 ar
    30   16   39 1
    31   17   18 ar
    32   17   40 1
    33   18   19 ar
    34   18   41 1
    35   19   20 ar
    36   19   42 1
    37   20   21 1
    38   21   43 1
    39   21   44 1
    40   21   45 1
    41   22   27 ar
    42   22   23 ar
    43   23   24 ar
    44   23   46 1
    45   24   25 ar
    46   24   47 1
    47   25   26 ar
    48   25   29 1
    49   26   27 ar
    50   26   28 1
    51   27   48 1
    52   28   49 1
    53   28   50 1
    54   28   51 1
@<TRIPOS>MOLECULE
ZINC05286970
   42    44     0     0     0
SMALL
USER_CHARGES
4-chloro-2-[(3-morpholinosulfonylphenyl)iminomethyl]phenol
@<TRIPOS>ATOM
      1 C1          3.7118   -0.6860    0.8116 C.ar      1 <0>        -0.1192
      2 C2          2.5054   -0.0173    0.8319 C.ar      1 <0>        -0.0965
      3 C3          2.3019    1.0749   -0.0141 C.ar      1 <0>         0.0659
      4 C4          3.3210    1.4788   -0.8799 C.ar      1 <0>        -0.0042
      5 C5          4.5241    0.8046   -0.8856 C.ar      1 <0>        -0.6645
      6 C6          4.7188   -0.2770   -0.0444 C.ar      1 <0>        -0.0293
      7 S1          5.8136    1.3167   -1.9716 S.o2      1 <0>         2.6915
      8 O1          5.5779    2.6872   -2.2641 O.2       1 <0>        -0.9468
      9 O2          7.0314    0.8581   -1.4009 O.2       1 <0>        -0.9472
     10 N1          5.6152    0.4888   -3.3920 N.pl3     1 <0>        -1.0007
     11 C7          6.2656   -0.8135   -3.6069 C.3       1 <0>         0.0849
     12 C8          5.1988   -1.8075   -4.0933 C.3       1 <0>         0.0467
     13 O3          4.5136   -1.2477   -5.2163 O.3       1 <0>        -0.3739
     14 C9          3.7977   -0.0450   -4.9250 C.3       1 <0>         0.0473
     15 C10         4.7882    1.0366   -4.4790 C.3       1 <0>         0.0850
     16 N2          1.1075    1.7430    0.0008 N.2       1 <0>        -0.4537
     17 C11        -0.0126    1.0758    0.0080 C.2       1 <0>         0.2026
     18 C12        -1.2957    1.7936    0.0179 C.ar      1 <0>        -0.1019
     19 C13        -2.4999    1.0820    0.0198 C.ar      1 <0>        -0.0609
     20 C14        -3.6994    1.7621    0.0291 C.ar      1 <0>        -0.0543
     21 C15        -3.7171    3.1483    0.0367 C.ar      1 <0>        -0.0698
     22 C16        -2.5349    3.8628    0.0345 C.ar      1 <0>        -0.1437
     23 C17        -1.3196    3.1964    0.0315 C.ar      1 <0>         0.1662
     24 O4         -0.1577    3.8979    0.0360 O.3       1 <0>        -0.4698
     25 Cl1        -5.1938    0.8786    0.0308 Cl        1 <0>        -0.0589
     26 H1          3.8705   -1.5311    1.4651 H         1 <0>         0.1385
     27 H2          1.7200   -0.3379    1.5004 H         1 <0>         0.1325
     28 H3          3.1687    2.3199   -1.5401 H         1 <0>         0.1458
     29 H4          5.6612   -0.8044   -0.0565 H         1 <0>         0.1429
     30 H5          7.0482   -0.7134   -4.3590 H         1 <0>         0.0879
     31 H6          6.6984   -1.1666   -2.6709 H         1 <0>         0.1005
     32 H7          4.4861   -2.0018   -3.2918 H         1 <0>         0.0563
     33 H8          5.6787   -2.7407   -4.3879 H         1 <0>         0.1091
     34 H9          3.0799   -0.2329   -4.1265 H         1 <0>         0.0548
     35 H10         3.2704    0.2902   -5.8181 H         1 <0>         0.1090
     36 H11         4.2421    1.9093   -4.1207 H         1 <0>         0.0996
     37 H12         5.4246    1.3205   -5.3171 H         1 <0>         0.0879
     38 H13         0.0021   -0.0041    0.0020 H         1 <0>         0.1130
     39 H14        -2.4903    0.0021    0.0135 H         1 <0>         0.1439
     40 H15        -4.6611    3.6729    0.0440 H         1 <0>         0.1423
     41 H16        -2.5576    4.9425    0.0397 H         1 <0>         0.1448
     42 H17         0.1773    4.1097   -0.8461 H         1 <0>         0.3961
@<TRIPOS>BOND
     1    1    6 ar
     2    1    2 ar
     3    1   26 1
     4    2    3 ar
     5    2   27 1
     6    3    4 ar
     7    3   16 1
     8    4    5 ar
     9    4   28 1
    10    5    6 ar
    11    5    7 1
    12    6   29 1
    13    7    8 2
    14    7    9 2
    15    7   10 1
    16   10   15 1
    17   10   11 1
    18   11   12 1
    19   11   30 1
    20   11   31 1
    21   12   13 1
    22   12   32 1
    23   12   33 1
    24   13   14 1
    25   14   15 1
    26   14   34 1
    27   14   35 1
    28   15   36 1
    29   15   37 1
    30   16   17 2
    31   17   18 1
    32   17   38 1
    33   18   23 ar
    34   18   19 ar
    35   19   20 ar
    36   19   39 1
    37   20   21 ar
    38   20   25 1
    39   21   22 ar
    40   21   40 1
    41   22   23 ar
    42   22   41 1
    43   23   24 1
    44   24   42 1
@<TRIPOS>MOLECULE
ZINC20015021
   40    42     0     0     0
SMALL
USER_CHARGES
N-[4-(2,5-dimethyl-3-thienyl)thiazol-2-yl]-2-methyl-3-nitro-benzamide
@<TRIPOS>ATOM
      1 C1          2.6148   -2.9217   -0.1851 C.3       1 <0>        -0.0725
      2 C2          2.3096   -1.4464   -0.1479 C.2       1 <0>        -0.1818
      3 C3          1.1039   -0.8517   -0.1360 C.2       1 <0>        -0.1222
      4 C4          1.0442    0.5430   -0.1009 C.2       1 <0>        -0.0908
      5 C5          2.3428    1.2325   -0.0858 C.2       1 <0>        -0.1505
      6 S1          3.4632   -0.0900   -0.1105 S.3       1 <0>         0.1315
      7 C6          2.6273    2.7121   -0.0542 C.3       1 <0>        -0.0543
      8 C7         -0.1758    1.2413   -0.0869 C.2       1 <0>         0.1505
      9 C8         -1.4902    0.5352   -0.1081 C.2       1 <0>        -0.3151
     10 S2         -2.5908    1.8789   -0.0837 S.3       1 <0>         0.2222
     11 C9         -1.3853    3.1934   -0.0407 C.2       1 <0>         0.2563
     12 N1         -0.2255    2.5514   -0.0539 N.2       1 <0>        -0.5113
     13 N2         -1.6044    4.5373   -0.0073 N.am      1 <0>        -0.6106
     14 C10        -2.8648    5.0145    0.0015 C.2       1 <0>         0.5636
     15 O1         -3.8057    4.2459   -0.0204 O.2       1 <0>        -0.4815
     16 C11        -3.1025    6.4723    0.0377 C.ar      1 <0>        -0.1444
     17 C12        -2.0318    7.3537    0.2016 C.ar      1 <0>        -0.0216
     18 C13        -2.2607    8.7134    0.2341 C.ar      1 <0>        -0.1299
     19 C14        -3.5481    9.2048    0.1051 C.ar      1 <0>        -0.0139
     20 C15        -4.6135    8.3372   -0.0575 C.ar      1 <0>        -0.0179
     21 C16        -4.3980    6.9751   -0.0975 C.ar      1 <0>         0.0635
     22 C17        -5.5590    6.0319   -0.2805 C.3       1 <0>        -0.2041
     23 N3         -5.9869    8.8719   -0.1941 N.pl3     1 <0>        -0.0127
     24 O2         -6.1802   10.1699   -0.3048 O.2       1 <0>        -0.1478
     25 O3         -7.0155    8.0495   -0.2050 O.3       1 <0>        -0.1597
     26 H1          1.6734   -3.4905   -0.2018 H         1 <0>         0.0802
     27 H2          3.1949   -3.1987    0.7075 H         1 <0>         0.0750
     28 H3          3.1989   -3.1526   -1.0882 H         1 <0>         0.0750
     29 H4          0.1991   -1.4412   -0.1536 H         1 <0>         0.1350
     30 H5          3.7150    2.8763   -0.0504 H         1 <0>         0.0647
     31 H6          2.1870    3.1508    0.8534 H         1 <0>         0.0827
     32 H7          2.1876    3.1891   -0.9425 H         1 <0>         0.0826
     33 H8         -1.7003   -0.5239   -0.1360 H         1 <0>         0.1944
     34 H9         -0.7527    5.2331    0.0125 H         1 <0>         0.4487
     35 H10        -1.0268    6.9716    0.3030 H         1 <0>         0.1493
     36 H11        -1.4336    9.3962    0.3608 H         1 <0>         0.1618
     37 H12        -3.7218   10.2704    0.1312 H         1 <0>         0.1653
     38 H13        -6.4907    6.6100   -0.3681 H         1 <0>         0.1475
     39 H14        -5.6251    5.3591    0.5873 H         1 <0>         0.1021
     40 H15        -5.4085    5.4382   -1.1942 H         1 <0>         0.0907
@<TRIPOS>BOND
     1    1    2 1
     2    1   26 1
     3    1   27 1
     4    1   28 1
     5    2    6 1
     6    2    3 2
     7    3    4 1
     8    3   29 1
     9    4    5 2
    10    4    8 1
    11    5    6 1
    12    5    7 1
    13    7   30 1
    14    7   31 1
    15    7   32 1
    16    8   12 1
    17    8    9 2
    18    9   10 1
    19    9   33 1
    20   10   11 1
    21   11   12 2
    22   11   13 1
    23   13   14 am
    24   13   34 1
    25   14   15 2
    26   14   16 1
    27   16   21 ar
    28   16   17 ar
    29   17   18 ar
    30   17   35 1
    31   18   19 ar
    32   18   36 1
    33   19   20 ar
    34   19   37 1
    35   20   21 ar
    36   20   23 1
    37   21   22 1
    38   22   38 1
    39   22   39 1
    40   22   40 1
    41   23   24 2
    42   23   25 1
@<TRIPOS>MOLECULE
ZINC48816347
   32    33     0     0     0
SMALL
USER_CHARGES

@<TRIPOS>ATOM
      1 C1         -0.5144    2.2136   -0.0703 C.3       1 <0>        -0.1682
      2 C2         -0.2547    0.7128    0.0754 C.3       1 <0>         0.0906
      3 N1         -1.5313   -0.0059    0.0754 N.pl3     1 <0>        -0.3836
      4 C3         -2.1736   -0.4765    1.1723 C.2       1 <0>         0.1228
      5 C4         -3.3201   -1.0832    0.7821 C.2       1 <0>        -0.1319
      6 C5         -3.4018   -0.9908   -0.6107 C.2       1 <0>        -0.0772
      7 C6         -2.2811   -0.3105   -1.0381 C.2       1 <0>        -0.0384
      8 C7         -1.9475    0.0249   -2.4261 C.2       1 <0>         0.5988
      9 O1         -0.8851    0.5595   -2.6845 O.2       1 <0>        -0.5044
     10 N2         -2.8173   -0.2589   -3.4157 N.am      1 <0>        -0.6518
     11 C8         -2.4781    0.0146   -4.7447 C.ar      1 <0>         0.1806
     12 C9         -1.1927    0.4340   -5.0628 C.ar      1 <0>        -0.1568
     13 C10        -0.8610    0.7033   -6.3760 C.ar      1 <0>        -0.0768
     14 C11        -1.8068    0.5560   -7.3742 C.ar      1 <0>        -0.1348
     15 C12        -3.0873    0.1388   -7.0614 C.ar      1 <0>        -0.0604
     16 C13        -3.4244   -0.1379   -5.7503 C.ar      1 <0>        -0.1404
     17 I1         -5.3623   -0.7790   -5.2784 I         1 <0>        -0.0344
     18 N3         -4.3104   -1.7298    1.6722 N.pl3     1 <0>         0.0661
     19 O2         -4.1287   -1.7468    2.8674 O.2       1 <0>        -0.1649
     20 O3         -5.3010   -2.2409    1.2041 O.3       1 <0>        -0.1558
     21 H1          0.4354    2.7483   -0.0703 H         1 <0>         0.0868
     22 H2         -1.0377    2.4025   -1.0076 H         1 <0>         0.0700
     23 H3         -1.1259    2.5591    0.7632 H         1 <0>         0.0634
     24 H4          0.3568    0.3673   -0.7581 H         1 <0>         0.1156
     25 H5          0.2686    0.5240    1.0127 H         1 <0>         0.1058
     26 H6         -1.8274   -0.3835    2.1911 H         1 <0>         0.2039
     27 H7         -4.1955   -1.3757   -1.2339 H         1 <0>         0.1705
     28 H8         -3.6786   -0.6529   -3.2062 H         1 <0>         0.4153
     29 H9         -0.4536    0.5496   -4.2839 H         1 <0>         0.1859
     30 H10         0.1383    1.0297   -6.6237 H         1 <0>         0.1346
     31 H11        -1.5447    0.7677   -8.4003 H         1 <0>         0.1336
     32 H12        -3.8236    0.0247   -7.8433 H         1 <0>         0.1353
@<TRIPOS>BOND
     1    1    2 1
     2    1   21 1
     3    1   22 1
     4    1   23 1
     5    2    3 1
     6    2   24 1
     7    2   25 1
     8    3    7 1
     9    3    4 1
    10    4    5 2
    11    4   26 1
    12    5    6 1
    13    5   18 1
    14    6    7 2
    15    6   27 1
    16    7    8 1
    17    8    9 2
    18    8   10 am
    19   10   11 1
    20   10   28 1
    21   11   16 ar
    22   11   12 ar
    23   12   13 ar
    24   12   29 1
    25   13   14 ar
    26   13   30 1
    27   14   15 ar
    28   14   31 1
    29   15   16 ar
    30   15   32 1
    31   16   17 1
    32   18   19 2
    33   18   20 1
@<TRIPOS>MOLECULE
ZINC64865330
   57    59     0     0     0
SMALL
USER_CHARGES

@<TRIPOS>ATOM
      1 C1          0.0230    0.7769   -0.4690 C.3       1 <0>        -0.1230
      2 C2          0.0333   -0.6750   -0.0655 C.2       1 <0>        -0.0589
      3 C3          0.0425   -1.7491   -0.8740 C.2       1 <0>        -0.0104
      4 N1          0.0502   -2.9141   -0.1680 N.2       1 <0>        -0.4418
      5 C4          0.0471   -2.7402    1.1076 C.2       1 <0>         0.1580
      6 C5          0.0422   -1.2427    1.3418 C.3       1 <0>        -0.6262
      7 H1          0.9394   -0.9316    1.8769 H         1 <0>         0.1930
      8 S1         -1.4501   -0.7430    2.2439 S.o2      1 <0>         2.6301
      9 O1         -1.5804   -1.5064    3.4354 O.2       1 <0>        -0.9309
     10 O2         -1.5507    0.6741    2.2769 O.2       1 <0>        -0.9282
     11 N2         -2.7099   -1.2339    1.2877 N.pl3     1 <0>        -0.9762
     12 C6         -3.2998   -0.2803    0.3751 C.3       1 <0>         0.1227
     13 C7         -4.4440    0.4819    1.0880 C.3       1 <0>        -0.1374
     14 C8         -5.5979   -0.4064    1.2954 C.3       1 <0>        -0.1192
     15 C9         -5.3169   -1.6004    2.2026 C.3       1 <0>        -0.1179
     16 C10        -4.7208   -2.7200    1.3855 C.3       1 <0>        -0.1220
     17 C11        -3.1803   -2.6286    1.3981 C.3       1 <0>         0.1101
     18 C12         0.0528   -3.8162    2.1627 C.3       1 <0>        -0.1066
     19 C13         0.0434   -1.6749   -2.3500 C.2       1 <0>         0.5875
     20 O3          0.0354   -0.5929   -2.9043 O.2       1 <0>        -0.5290
     21 N3          0.0530   -2.8067   -3.0817 N.am      1 <0>        -0.7112
     22 C14         0.0538   -2.7332   -4.5448 C.3       1 <0>         0.1449
     23 C15         1.4901   -2.5707   -5.0465 C.3       1 <0>        -0.1292
     24 C16         1.4910   -2.4939   -6.5745 C.3       1 <0>        -0.1171
     25 C17         0.8920   -3.7787   -7.1501 C.3       1 <0>        -0.1229
     26 C18        -0.5442   -3.9412   -6.6484 C.3       1 <0>        -0.1159
     27 C19        -0.5451   -4.0180   -5.1204 C.3       1 <0>        -0.1259
     28 H2          1.0481    1.1332   -0.5702 H         1 <0>         0.0907
     29 H3         -0.4952    0.8856   -1.4217 H         1 <0>         0.1054
     30 H4         -0.4914    1.3622    0.2932 H         1 <0>         0.0883
     31 H5         -2.5389    0.4291    0.0495 H         1 <0>         0.0810
     32 H6         -3.6994   -0.8067   -0.4917 H         1 <0>         0.0827
     33 H7         -4.0896    0.8442    2.0531 H         1 <0>         0.0702
     34 H8         -4.7478    1.3312    0.4762 H         1 <0>         0.0779
     35 H9         -6.4093    0.1764    1.7316 H         1 <0>         0.0596
     36 H10        -5.9268   -0.7787    0.3252 H         1 <0>         0.0600
     37 H11        -4.6154   -1.3067    2.9834 H         1 <0>         0.0650
     38 H12        -6.2478   -1.9383    2.6579 H         1 <0>         0.0657
     39 H13        -5.0295   -3.6776    1.8048 H         1 <0>         0.0780
     40 H14        -5.0761   -2.6462    0.3577 H         1 <0>         0.0687
     41 H15        -2.7811   -3.2039    0.5627 H         1 <0>         0.0679
     42 H16        -2.8078   -3.0551    2.3295 H         1 <0>         0.0922
     43 H17        -0.0252   -4.7932    1.6857 H         1 <0>         0.0962
     44 H18         0.9812   -3.7625    2.7313 H         1 <0>         0.0950
     45 H19        -0.7934   -3.6711    2.8342 H         1 <0>         0.1007
     46 H20         0.0594   -3.6700   -2.6394 H         1 <0>         0.4086
     47 H21        -0.5420   -1.8789   -4.8660 H         1 <0>         0.0897
     48 H22         1.9168   -1.6553   -4.6364 H         1 <0>         0.0666
     49 H23         2.0860   -3.4250   -4.7253 H         1 <0>         0.0636
     50 H24         0.8951   -1.6396   -6.8957 H         1 <0>         0.0649
     51 H25         2.5142   -2.3781   -6.9319 H         1 <0>         0.0655
     52 H26         0.8926   -3.7240   -8.2387 H         1 <0>         0.0649
     53 H27         1.4879   -4.6331   -6.8289 H         1 <0>         0.0629
     54 H28        -1.1401   -3.0869   -6.9696 H         1 <0>         0.0655
     55 H29        -0.9710   -4.8566   -7.0585 H         1 <0>         0.0683
     56 H30         0.0508   -4.8724   -4.7992 H         1 <0>         0.0687
     57 H31        -1.5683   -4.1338   -4.7630 H         1 <0>         0.0690
@<TRIPOS>BOND
     1    1    2 1
     2    1   28 1
     3    1   29 1
     4    1   30 1
     5    2    6 1
     6    2    3 2
     7    3    4 1
     8    3   19 1
     9    4    5 2
    10    5    6 1
    11    5   18 1
    12    6    7 1
    13    6    8 1
    14    8    9 2
    15    8   10 2
    16    8   11 1
    17   11   17 1
    18   11   12 1
    19   12   13 1
    20   12   31 1
    21   12   32 1
    22   13   14 1
    23   13   33 1
    24   13   34 1
    25   14   15 1
    26   14   35 1
    27   14   36 1
    28   15   16 1
    29   15   37 1
    30   15   38 1
    31   16   17 1
    32   16   39 1
    33   16   40 1
    34   17   41 1
    35   17   42 1
    36   18   43 1
    37   18   44 1
    38   18   45 1
    39   19   20 2
    40   19   21 am
    41   21   22 1
    42   21   46 1
    43   22   27 1
    44   22   23 1
    45   22   47 1
    46   23   24 1
    47   23   48 1
    48   23   49 1
    49   24   25 1
    50   24   50 1
    51   24   51 1
    52   25   26 1
    53   25   52 1
    54   25   53 1
    55   26   27 1
    56   26   54 1
    57   26   55 1
    58   27   56 1
    59   27   57 1
@<TRIPOS>MOLECULE
ZINC66802973
   50    53     0     0     0
SMALL
USER_CHARGES

@<TRIPOS>ATOM
      1 C1         -0.7032    1.7762   -0.1652 C.3       1 <0>         0.1152
      2 N1         -0.1017    0.4436   -0.2577 N.pl3     1 <0>        -0.6876
      3 C2          0.5102   -0.1675    0.9247 C.3       1 <0>         0.1135
      4 C3         -0.1115   -0.2419   -1.4692 C.ar      1 <0>         0.1702
      5 C4          0.9453   -0.0901   -2.3615 C.ar      1 <0>        -0.1048
      6 C5          0.9390   -0.7664   -3.5604 C.ar      1 <0>        -0.0560
      7 C6         -0.1303   -1.6073   -3.8821 C.ar      1 <0>        -0.1165
      8 C7         -1.1914   -1.7592   -2.9842 C.ar      1 <0>        -0.1168
      9 C8         -1.1772   -1.0834   -1.7835 C.ar      1 <0>         0.0847
     10 F1         -2.1993   -1.2326   -0.9127 F         1 <0>        -0.1287
     11 C9         -0.1395   -2.3326   -5.1663 C.2       1 <0>         0.5641
     12 O1          0.7837   -2.1993   -5.9465 O.2       1 <0>        -0.5057
     13 N2         -1.1711   -3.1430   -5.4752 N.am      1 <0>        -0.6694
     14 C10        -1.2274   -3.7547   -6.7296 C.ar      1 <0>         0.1585
     15 C11        -0.0562   -4.1764   -7.3491 C.ar      1 <0>        -0.1151
     16 C12        -0.1086   -4.7801   -8.5866 C.ar      1 <0>        -0.0533
     17 C13        -1.3392   -4.9686   -9.2182 C.ar      1 <0>        -0.0302
     18 C14        -2.5134   -4.5446   -8.5935 C.ar      1 <0>        -0.0931
     19 C15        -2.4550   -3.9458   -7.3538 C.ar      1 <0>        -0.1393
     20 C16        -1.3987   -5.6157  -10.5464 C.2       1 <0>         0.2228
     21 N3         -0.4535   -6.3400  -11.1117 N.2       1 <0>        -0.2812
     22 N4         -0.8486   -6.7466  -12.2689 N.2       1 <0>        -0.2867
     23 C17        -2.0501   -6.3120  -12.5036 C.2       1 <0>         0.1833
     24 N5         -2.4417   -5.5838  -11.4189 N.pl3     1 <0>        -0.4718
     25 C18        -3.7371   -4.9199  -11.2817 C.3       1 <0>         0.0985
     26 C19        -4.3847   -4.8148  -12.6676 C.3       1 <0>        -0.1377
     27 C20        -4.3599   -6.1846  -13.3517 C.3       1 <0>        -0.1272
     28 C21        -2.9109   -6.5380  -13.7213 C.3       1 <0>        -0.0352
     29 H1          0.0501    2.5313   -0.3899 H         1 <0>         0.0411
     30 H2         -1.5219    1.8557   -0.8804 H         1 <0>         0.0551
     31 H3         -1.0854    1.9331    0.8434 H         1 <0>         0.0633
     32 H4         -0.2405   -0.7437    1.4656 H         1 <0>         0.0390
     33 H5          1.3206   -0.8273    0.6146 H         1 <0>         0.0579
     34 H6          0.9059    0.6136    1.5739 H         1 <0>         0.0645
     35 H7          1.7715    0.5595   -2.1132 H         1 <0>         0.1432
     36 H8          1.7596   -0.6470   -4.2523 H         1 <0>         0.1477
     37 H9         -2.0191   -2.4079   -3.2300 H         1 <0>         0.1390
     38 H10        -1.8745   -3.3015   -4.8263 H         1 <0>         0.4125
     39 H11         0.8955   -4.0303   -6.8599 H         1 <0>         0.1485
     40 H12         0.8016   -5.1068   -9.0676 H         1 <0>         0.1422
     41 H13        -3.4668   -4.6888   -9.0799 H         1 <0>         0.1295
     42 H14        -3.3635   -3.6213   -6.8682 H         1 <0>         0.1338
     43 H15        -4.3789   -5.5033  -10.6216 H         1 <0>         0.0924
     44 H16        -3.5943   -3.9215  -10.8682 H         1 <0>         0.0991
     45 H17        -5.4168   -4.4808  -12.5616 H         1 <0>         0.0955
     46 H18        -3.8317   -4.0967  -13.2731 H         1 <0>         0.0791
     47 H19        -4.7609   -6.9373  -12.6730 H         1 <0>         0.0731
     48 H20        -4.9666   -6.1502  -14.2566 H         1 <0>         0.0887
     49 H21        -2.5654   -5.9053  -14.5388 H         1 <0>         0.0981
     50 H22        -2.8600   -7.5854  -14.0188 H         1 <0>         0.1021
@<TRIPOS>BOND
     1    1    2 1
     2    1   29 1
     3    1   30 1
     4    1   31 1
     5    2    3 1
     6    2    4 1
     7    3   32 1
     8    3   33 1
     9    3   34 1
    10    4    9 ar
    11    4    5 ar
    12    5    6 ar
    13    5   35 1
    14    6    7 ar
    15    6   36 1
    16    7    8 ar
    17    7   11 1
    18    8    9 ar
    19    8   37 1
    20    9   10 1
    21   11   12 2
    22   11   13 am
    23   13   14 1
    24   13   38 1
    25   14   19 ar
    26   14   15 ar
    27   15   16 ar
    28   15   39 1
    29   16   17 ar
    30   16   40 1
    31   17   18 ar
    32   17   20 1
    33   18   19 ar
    34   18   41 1
    35   19   42 1
    36   20   24 1
    37   20   21 2
    38   21   22 1
    39   22   23 2
    40   23   28 1
    41   23   24 1
    42   24   25 1
    43   25   26 1
    44   25   43 1
    45   25   44 1
    46   26   27 1
    47   26   45 1
    48   26   46 1
    49   27   28 1
    50   27   47 1
    51   27   48 1
    52   28   49 1
    53   28   50 1
@<TRIPOS>MOLECULE
ZINC05619906
   46    49     0     0     0
SMALL
USER_CHARGES
2-[(1S)-1-[[5-methyl-4-(o-tolyl)-1,2,4-triazol-3-yl]sulfanyl]ethyl]-3H-quinazolin-4-one
@<TRIPOS>ATOM
      1 C1         -2.5514    3.8822    0.0470 C.3       1 <0>        -0.1224
      2 C2         -1.2387    3.1421    0.0304 C.ar      1 <0>        -0.0537
      3 C3         -0.0491    3.8443    0.0233 C.ar      1 <0>        -0.1114
      4 C4          1.1555    3.1660    0.0081 C.ar      1 <0>        -0.0908
      5 C5          1.1735    1.7832    0.0004 C.ar      1 <0>        -0.1146
      6 C6         -0.0126    1.0758    0.0080 C.ar      1 <0>        -0.0896
      7 C7         -1.2238    1.7543    0.0174 C.ar      1 <0>         0.0906
      8 N1         -2.4300    1.0386    0.0187 N.pl3     1 <0>        -0.4138
      9 C8         -3.1369    0.6099    1.1108 C.2       1 <0>         0.1978
     10 N2         -4.1928   -0.0128    0.6687 N.2       1 <0>        -0.2800
     11 N3         -4.2036   -0.0083   -0.6163 N.2       1 <0>        -0.2888
     12 C9         -3.1489    0.6283   -1.0704 C.2       1 <0>         0.1474
     13 S1         -2.7359    0.8995   -2.7617 S.3       1 <0>         0.0936
     14 C10        -4.1368    0.0797   -3.5626 C.3       1 <0>        -0.0444
     15 H1         -4.2089   -0.9478   -3.2060 H         1 <0>         0.1277
     16 C11        -5.4274    0.8287   -3.2245 C.3       1 <0>        -0.1471
     17 C12        -3.9324    0.0799   -5.0557 C.2       1 <0>         0.4125
     18 N4         -4.3696   -0.9923   -5.7662 N.am      1 <0>        -0.6452
     19 H2         -4.8003   -1.7300   -5.3067 H         1 <0>         0.4214
     20 C13        -4.2102   -1.0403   -7.1094 C.2       1 <0>         0.5537
     21 O1         -4.5972   -1.9946   -7.7584 O.2       1 <0>        -0.5035
     22 C14        -3.5510    0.1052   -7.7541 C.ar      1 <0>        -0.1954
     23 C15        -3.3381    0.1543   -9.1302 C.ar      1 <0>        -0.0410
     24 C16        -2.7151    1.2523   -9.6819 C.ar      1 <0>        -0.1333
     25 C17        -2.2996    2.3064   -8.8786 C.ar      1 <0>        -0.0717
     26 C18        -2.5001    2.2771   -7.5170 C.ar      1 <0>        -0.1047
     27 C19        -3.1293    1.1751   -6.9341 C.ar      1 <0>         0.1520
     28 N5         -3.3520    1.1072   -5.5977 N.2       1 <0>        -0.5028
     29 C20        -2.7632    0.8199    2.5556 C.3       1 <0>        -0.0687
     30 H3         -2.8775    4.0665   -0.9766 H         1 <0>         0.0824
     31 H4         -3.3001    3.2824    0.5644 H         1 <0>         0.0631
     32 H5         -2.4259    4.8329    0.5651 H         1 <0>         0.0779
     33 H6         -0.0601    4.9243    0.0292 H         1 <0>         0.1363
     34 H7          2.0843    3.7171    0.0018 H         1 <0>         0.1342
     35 H8          2.1160    1.2560   -0.0118 H         1 <0>         0.1358
     36 H9          0.0021   -0.0041    0.0020 H         1 <0>         0.1300
     37 H10        -5.3553    1.8561   -3.5812 H         1 <0>         0.0772
     38 H11        -6.2710    0.3350   -3.7068 H         1 <0>         0.0719
     39 H12        -5.5753    0.8285   -2.1446 H         1 <0>         0.0948
     40 H13        -3.6590   -0.6623   -9.7598 H         1 <0>         0.1398
     41 H14        -2.5485    1.2938  -10.7481 H         1 <0>         0.1361
     42 H15        -1.8128    3.1594   -9.3278 H         1 <0>         0.1372
     43 H16        -2.1727    3.1027   -6.9024 H         1 <0>         0.1423
     44 H17        -3.1977    1.7542    2.9112 H         1 <0>         0.0887
     45 H18        -3.1436   -0.0084    3.1533 H         1 <0>         0.0990
     46 H19        -1.6780    0.8658    2.6472 H         1 <0>         0.0795
@<TRIPOS>BOND
     1    1    2 1
     2    1   30 1
     3    1   31 1
     4    1   32 1
     5    2    7 ar
     6    2    3 ar
     7    3    4 ar
     8    3   33 1
     9    4    5 ar
    10    4   34 1
    11    5    6 ar
    12    5   35 1
    13    6    7 ar
    14    6   36 1
    15    7    8 1
    16    8   12 1
    17    8    9 1
    18    9   10 2
    19    9   29 1
    20   10   11 1
    21   11   12 2
    22   12   13 1
    23   13   14 1
    24   14   15 1
    25   14   16 1
    26   14   17 1
    27   16   37 1
    28   16   38 1
    29   16   39 1
    30   17   28 2
    31   17   18 1
    32   18   19 1
    33   18   20 am
    34   20   21 2
    35   20   22 1
    36   22   27 ar
    37   22   23 ar
    38   23   24 ar
    39   23   40 1
    40   24   25 ar
    41   24   41 1
    42   25   26 ar
    43   25   42 1
    44   26   27 ar
    45   26   43 1
    46   27   28 1
    47   29   44 1
    48   29   45 1
    49   29   46 1
@<TRIPOS>MOLECULE
ZINC39760978
   46    48     0     0     0
SMALL
USER_CHARGES

@<TRIPOS>ATOM
      1 C1          1.2758    1.3942    0.1927 C.3       1 <0>        -0.1207
      2 C2          1.0134   -0.0890    0.1448 C.ar      1 <0>        -0.0710
      3 C3          1.4339   -0.8280   -0.9470 C.ar      1 <0>        -0.1134
      4 C4          1.1965   -2.1859   -0.9973 C.ar      1 <0>        -0.1137
      5 C5          0.5308   -2.8144    0.0565 C.ar      1 <0>        -0.0200
      6 C6          0.1098   -2.0634    1.1548 C.ar      1 <0>        -0.0703
      7 C7          0.3582   -0.7067    1.1950 C.ar      1 <0>        -0.0831
      8 C8         -0.0906    0.1049    2.3828 C.3       1 <0>        -0.1186
      9 C9          0.2726   -4.2693    0.0090 C.2       1 <0>         0.2264
     10 N1          0.0109   -5.0490    1.0321 N.2       1 <0>        -0.2676
     11 N2         -0.1617   -6.2573    0.6300 N.2       1 <0>        -0.2880
     12 C10        -0.0207   -6.3230   -0.6753 C.2       1 <0>         0.1530
     13 N3          0.2553   -5.0605   -1.1165 N.pl3     1 <0>        -0.4578
     14 C11         0.4871   -4.6371   -2.4997 C.3       1 <0>         0.0647
     15 S1         -0.1666   -7.7695   -1.6707 S.3       1 <0>         0.0543
     16 C12        -0.5456   -9.0850   -0.4805 C.3       1 <0>        -0.0731
     17 H1          0.2209   -9.1059    0.2942 H         1 <0>         0.1285
     18 C13        -1.9096   -8.8170    0.1586 C.3       1 <0>        -0.1400
     19 C14        -0.5766  -10.4129   -1.1924 C.2       1 <0>         0.5153
     20 O1         -0.7286  -10.4529   -2.3978 O.2       1 <0>        -0.5114
     21 N4         -0.4374  -11.5417   -0.5015 N.2       1 <0>        -0.6182
     22 C15        -0.4647  -12.7118   -1.1288 C.2       1 <0>         0.4364
     23 N5         -0.3416  -13.9288   -0.5518 N.pl3     1 <0>        -0.6970
     24 C16        -0.3909  -15.1252   -1.3665 C.3       1 <0>         0.0993
     25 C17        -0.5899  -14.7769   -2.8566 C.3       1 <0>        -0.1670
     26 S2         -0.6651  -12.9452   -2.7763 S.3       1 <0>         0.0479
     27 H2          2.2412    1.5773    0.6645 H         1 <0>         0.0746
     28 H3          1.2850    1.7945   -0.8211 H         1 <0>         0.0689
     29 H4          0.4909    1.8835    0.7695 H         1 <0>         0.0720
     30 H5          1.9487   -0.3405   -1.7616 H         1 <0>         0.1297
     31 H6          1.5245   -2.7614   -1.8503 H         1 <0>         0.1265
     32 H7         -0.4060   -2.5437    1.9732 H         1 <0>         0.1362
     33 H8         -1.1010    0.4751    2.2089 H         1 <0>         0.0736
     34 H9         -0.0815   -0.5211    3.2750 H         1 <0>         0.0706
     35 H10         0.5859    0.9479    2.5234 H         1 <0>         0.0717
     36 H11         1.5590   -4.6060   -2.6953 H         1 <0>         0.0895
     37 H12         0.0139   -5.3448   -3.1804 H         1 <0>         0.0987
     38 H13         0.0610   -3.6456   -2.6525 H         1 <0>         0.0995
     39 H14        -2.6761   -8.7962   -0.6161 H         1 <0>         0.0670
     40 H15        -2.1373   -9.6075    0.8738 H         1 <0>         0.0780
     41 H16        -1.8872   -7.8566    0.6735 H         1 <0>         0.0853
     42 H17         0.5424  -15.6760   -1.2496 H         1 <0>         0.0980
     43 H18        -1.2179  -15.7516   -1.0322 H         1 <0>         0.0983
     44 H19         0.2567  -15.1128   -3.4554 H         1 <0>         0.1244
     45 H20        -1.5251  -15.1894   -3.2353 H         1 <0>         0.1243
     46 H21        -0.2200  -14.0003    0.4078 H         1 <0>         0.4181
@<TRIPOS>BOND
     1    1    2 1
     2    1   27 1
     3    1   28 1
     4    1   29 1
     5    2    7 ar
     6    2    3 ar
     7    3    4 ar
     8    3   30 1
     9    4    5 ar
    10    4   31 1
    11    5    6 ar
    12    5    9 1
    13    6    7 ar
    14    6   32 1
    15    7    8 1
    16    8   33 1
    17    8   34 1
    18    8   35 1
    19    9   13 1
    20    9   10 2
    21   10   11 1
    22   11   12 2
    23   12   13 1
    24   12   15 1
    25   13   14 1
    26   14   36 1
    27   14   37 1
    28   14   38 1
    29   15   16 1
    30   16   17 1
    31   16   18 1
    32   16   19 1
    33   18   39 1
    34   18   40 1
    35   18   41 1
    36   19   20 2
    37   19   21 1
    38   21   22 2
    39   22   26 1
    40   22   23 1
    41   23   24 1
    42   23   46 1
    43   24   25 1
    44   24   42 1
    45   24   43 1
    46   25   26 1
    47   25   44 1
    48   25   45 1
@<TRIPOS>MOLECULE
ZINC57788421
   46    49     0     0     0
SMALL
USER_CHARGES

@<TRIPOS>ATOM
      1 C1         -0.0187    1.5258    0.0104 C.3       1 <0>        -0.1366
      2 C2          0.0021   -0.0041    0.0020 C.3       1 <0>         0.0797
      3 H1          0.5123   -0.3551   -0.8949 H         1 <0>         0.1050
      4 C3         -1.4125   -0.5252    0.0110 C.2       1 <0>         0.4901
      5 O1         -2.3064    0.1311   -0.4804 O.2       1 <0>        -0.4967
      6 N1         -1.6803   -1.7263    0.5683 N.am      1 <0>        -0.5512
      7 C4         -0.6349   -2.4484    1.1612 C.ar      1 <0>         0.0918
      8 C5         -0.7815   -3.7941    1.4544 C.ar      1 <0>        -0.1257
      9 C6          0.2617   -4.4878    2.0401 C.ar      1 <0>        -0.1088
     10 C7          1.4489   -3.8420    2.3327 C.ar      1 <0>        -0.1073
     11 C8          1.6017   -2.4985    2.0416 C.ar      1 <0>        -0.1061
     12 C9          0.5622   -1.7976    1.4553 C.ar      1 <0>         0.0807
     13 O2          0.6952   -0.4771    1.1599 O.3       1 <0>        -0.2999
     14 C10        -3.0423   -2.2658    0.5539 C.3       1 <0>         0.1242
     15 C11        -3.2473   -3.0990   -0.7129 C.3       1 <0>        -0.1563
     16 C12        -4.6483   -3.6540   -0.7277 C.2       1 <0>         0.5192
     17 O3         -5.4080   -3.4074    0.1850 O.2       1 <0>        -0.4915
     18 N2         -5.0571   -4.4245   -1.7553 N.am      1 <0>        -0.6191
     19 C13        -6.3475   -4.9356   -1.7690 C.2       1 <0>         0.0487
     20 C14        -6.9322   -5.7406   -2.7276 C.2       1 <0>        -0.1251
     21 C15        -8.3183   -6.1477   -2.5067 C.2       1 <0>        -0.0847
     22 C16        -8.8554   -5.6703   -1.3687 C.2       1 <0>        -0.2481
     23 S1         -7.5527   -4.7241   -0.6221 S.3       1 <0>         0.3511
     24 C17       -10.2820   -6.1150   -1.1926 C.3       1 <0>        -0.0314
     25 C18       -10.7174   -6.5948   -2.5950 C.3       1 <0>        -0.1164
     26 C19        -9.3675   -6.9937   -3.2249 C.3       1 <0>        -0.0619
     27 C20        -6.2095   -6.1586   -3.8910 C.1       1 <0>         0.2678
     28 N3         -5.6361   -6.4903   -4.8139 N.1       1 <0>        -0.4256
     29 H2          1.0039    1.9031    0.0027 H         1 <0>         0.0822
     30 H3         -0.5459    1.8868   -0.8726 H         1 <0>         0.0929
     31 H4         -0.5289    1.8773    0.9072 H         1 <0>         0.0721
     32 H5         -1.7080   -4.3002    1.2266 H         1 <0>         0.1317
     33 H6          0.1488   -5.5371    2.2693 H         1 <0>         0.1336
     34 H7          2.2599   -4.3888    2.7906 H         1 <0>         0.1360
     35 H8          2.5302   -1.9973    2.2716 H         1 <0>         0.1408
     36 H9         -3.1932   -2.8950    1.4310 H         1 <0>         0.1014
     37 H10        -3.7587   -1.4444    0.5684 H         1 <0>         0.1080
     38 H11        -3.0965   -2.4698   -1.5900 H         1 <0>         0.1110
     39 H12        -2.5310   -3.9204   -0.7274 H         1 <0>         0.1096
     40 H13        -4.4495   -4.6217   -2.4852 H         1 <0>         0.4225
     41 H14       -10.3389   -6.9344   -0.4760 H         1 <0>         0.0871
     42 H15       -10.9028   -5.2803   -0.8668 H         1 <0>         0.0819
     43 H16       -11.3836   -7.4546   -2.5236 H         1 <0>         0.0859
     44 H17       -11.1857   -5.7860   -3.1559 H         1 <0>         0.0784
     45 H18        -9.3677   -6.7691   -4.2915 H         1 <0>         0.0747
     46 H19        -9.1736   -8.0538   -3.0618 H         1 <0>         0.0842
@<TRIPOS>BOND
     1    1    2 1
     2    1   29 1
     3    1   30 1
     4    1   31 1
     5    2    3 1
     6    2   13 1
     7    2    4 1
     8    4    5 2
     9    4    6 am
    10    6    7 1
    11    6   14 1
    12    7   12 ar
    13    7    8 ar
    14    8    9 ar
    15    8   32 1
    16    9   10 ar
    17    9   33 1
    18   10   11 ar
    19   10   34 1
    20   11   12 ar
    21   11   35 1
    22   12   13 1
    23   14   15 1
    24   14   36 1
    25   14   37 1
    26   15   16 1
    27   15   38 1
    28   15   39 1
    29   16   17 2
    30   16   18 am
    31   18   19 1
    32   18   40 1
    33   19   23 1
    34   19   20 2
    35   20   21 1
    36   20   27 1
    37   21   26 1
    38   21   22 2
    39   22   23 1
    40   22   24 1
    41   24   25 1
    42   24   41 1
    43   24   42 1
    44   25   26 1
    45   25   43 1
    46   25   44 1
    47   26   45 1
    48   26   46 1
    49   27   28 3
@<TRIPOS>MOLECULE
ZINC65272185
   50    53     0     0     0
SMALL
USER_CHARGES

@<TRIPOS>ATOM
      1 C1         -0.0187    1.5258    0.0104 C.3       1 <0>        -0.1645
      2 C2          0.0021   -0.0041    0.0020 C.3       1 <0>         0.1347
      3 C3          0.7421   -0.5109    1.2415 C.3       1 <0>        -0.1617
      4 N1         -1.3723   -0.5112    0.0124 N.am      1 <0>        -0.7270
      5 C4         -2.0508   -0.6427   -1.1446 C.2       1 <0>         0.5183
      6 O1         -1.5236   -0.3413   -2.1944 O.2       1 <0>        -0.5328
      7 C5         -3.4646   -1.1643   -1.1339 C.3       1 <0>        -0.1089
      8 C6         -4.3438   -0.2373   -0.2915 C.3       1 <0>        -0.1280
      9 C7         -5.7723   -0.7893   -0.2543 C.3       1 <0>         0.1230
     10 N2         -6.2424   -0.9778   -1.6335 N.pl3     1 <0>        -0.5535
     11 C8         -5.4249   -1.7782   -2.5554 C.3       1 <0>         0.1236
     12 C9         -4.0002   -1.2151   -2.5667 C.3       1 <0>        -0.1161
     13 C10        -7.4287   -0.4146   -2.0547 C.2       1 <0>         0.4240
     14 N3         -7.9991   -0.4829   -3.2365 N.2       1 <0>        -0.5834
     15 C11        -9.1726    0.1234   -3.5095 C.ar      1 <0>         0.0979
     16 C12        -9.8929    0.1323   -4.7285 C.ar      1 <0>        -0.0440
     17 C13       -11.0730    0.8121   -4.8019 C.ar      1 <0>        -0.1300
     18 C14       -11.5704    1.4940   -3.6900 C.ar      1 <0>         0.1599
     19 N4        -10.8923    1.4843   -2.5463 N.ar      1 <0>        -0.4126
     20 C15        -9.7589    0.8438   -2.4396 C.ar      1 <0>         0.0432
     21 S1         -8.5840    0.5867   -1.1296 S.3       1 <0>         0.0320
     22 C16       -12.8544    2.2293   -3.7845 C.ar      1 <0>         0.0042
     23 C17       -13.5856    2.2476   -4.9761 C.ar      1 <0>        -0.1562
     24 C18       -14.7757    2.9444   -5.0204 C.ar      1 <0>         0.1005
     25 N5        -15.2242    3.5869   -3.9591 N.ar      1 <0>        -0.4810
     26 C19       -14.5655    3.5948   -2.8161 C.ar      1 <0>         0.0988
     27 C20       -13.3702    2.9186   -2.6828 C.ar      1 <0>        -0.1376
     28 H1          1.0039    1.9031    0.0027 H         1 <0>         0.0668
     29 H2         -0.5459    1.8868   -0.8726 H         1 <0>         0.0598
     30 H3         -0.5289    1.8773    0.9072 H         1 <0>         0.0569
     31 H4          0.5123   -0.3556   -0.8948 H         1 <0>         0.0882
     32 H5          0.2319   -0.1594    2.1383 H         1 <0>         0.0614
     33 H6          0.7568   -1.6008    1.2356 H         1 <0>         0.0620
     34 H7          1.7647   -0.1336    1.2338 H         1 <0>         0.0741
     35 H8         -1.7940   -0.7522    0.8520 H         1 <0>         0.3994
     36 H9         -3.4788   -2.1664   -0.7053 H         1 <0>         0.1042
     37 H10        -3.9482   -0.1832    0.7228 H         1 <0>         0.0892
     38 H11        -4.3501    0.7590   -0.7335 H         1 <0>         0.0799
     39 H12        -5.7810   -1.7456    0.2686 H         1 <0>         0.0891
     40 H13        -6.4237   -0.0830    0.2604 H         1 <0>         0.0892
     41 H14        -5.4053   -2.8152   -2.2200 H         1 <0>         0.0792
     42 H15        -5.8470   -1.7244   -3.5588 H         1 <0>         0.1033
     43 H16        -4.0098   -0.2096   -2.9873 H         1 <0>         0.0787
     44 H17        -3.3601   -1.8571   -3.1718 H         1 <0>         0.0916
     45 H18        -9.5116   -0.3936   -5.5913 H         1 <0>         0.1479
     46 H19       -11.6273    0.8233   -5.7287 H         1 <0>         0.1493
     47 H20       -13.2240    1.7244   -5.8490 H         1 <0>         0.1407
     48 H21       -15.3475    2.9643   -5.9364 H         1 <0>         0.1610
     49 H22       -14.9695    4.1341   -1.9721 H         1 <0>         0.1601
     50 H23       -12.8385    2.9255   -1.7427 H         1 <0>         0.1451
@<TRIPOS>BOND
     1    1    2 1
     2    1   28 1
     3    1   29 1
     4    1   30 1
     5    2    3 1
     6    2    4 1
     7    2   31 1
     8    3   32 1
     9    3   33 1
    10    3   34 1
    11    4    5 am
    12    4   35 1
    13    5    6 2
    14    5    7 1
    15    7   12 1
    16    7    8 1
    17    7   36 1
    18    8    9 1
    19    8   37 1
    20    8   38 1
    21    9   10 1
    22    9   39 1
    23    9   40 1
    24   10   11 1
    25   10   13 1
    26   11   12 1
    27   11   41 1
    28   11   42 1
    29   12   43 1
    30   12   44 1
    31   13   21 1
    32   13   14 2
    33   14   15 1
    34   15   20 ar
    35   15   16 ar
    36   16   17 ar
    37   16   45 1
    38   17   18 ar
    39   17   46 1
    40   18   19 ar
    41   18   22 1
    42   19   20 ar
    43   20   21 1
    44   22   27 ar
    45   22   23 ar
    46   23   24 ar
    47   23   47 1
    48   24   25 ar
    49   24   48 1
    50   25   26 ar
    51   26   27 ar
    52   26   49 1
    53   27   50 1
@<TRIPOS>MOLECULE
ZINC66870154
   43    45     0     0     0
SMALL
USER_CHARGES

@<TRIPOS>ATOM
      1 C1          0.2203    0.2622    1.3151 C.3       1 <0>        -0.1281
      2 C2          0.2135   -1.2001    0.9507 C.ar      1 <0>        -0.0188
      3 C3          0.1794   -1.5812   -0.3777 C.ar      1 <0>        -0.1407
      4 C4          0.1731   -2.9225   -0.7120 C.ar      1 <0>        -0.0092
      5 C5          0.2016   -3.8827    0.2820 C.ar      1 <0>        -0.6848
      6 C6          0.2366   -3.5016    1.6104 C.ar      1 <0>        -0.0153
      7 C7          0.2472   -2.1603    1.9445 C.ar      1 <0>        -0.1408
      8 S1          0.1925   -5.5924   -0.1441 S.o2      1 <0>         2.6642
      9 O1         -0.2220   -6.2982    1.0175 O.2       1 <0>        -0.9240
     10 O2         -0.4924   -5.6981   -1.3846 O.2       1 <0>        -0.9139
     11 N1          1.7625   -6.0338   -0.4311 N.am      1 <0>        -0.8889
     12 C8          2.6078   -6.3499    0.6395 C.ar      1 <0>         0.1059
     13 C9          2.9763   -5.3661    1.5476 C.ar      1 <0>        -0.1017
     14 C10         3.8096   -5.6787    2.6034 C.ar      1 <0>        -0.1280
     15 C11         4.2789   -6.9751    2.7568 C.ar      1 <0>         0.1246
     16 C12         3.9116   -7.9584    1.8497 C.ar      1 <0>        -0.1292
     17 C13         3.0735   -7.6487    0.7969 C.ar      1 <0>        -0.0698
     18 O3          5.0998   -7.2821    3.7964 O.3       1 <0>        -0.4955
     19 C14         2.2267   -6.0888   -1.6952 C.2       1 <0>         0.6173
     20 O4          3.4090   -6.2919   -1.9011 O.2       1 <0>        -0.4422
     21 C15         1.3075   -5.9039   -2.8225 C.2       1 <0>        -0.0881
     22 C16         1.0582   -6.8115   -3.8119 C.2       1 <0>        -0.1140
     23 C17         0.1211   -6.2213   -4.6742 C.2       1 <0>        -0.2197
     24 C18        -0.1571   -4.9948   -4.1798 C.2       1 <0>         0.0437
     25 O5          0.5553   -4.8095   -3.0608 O.3       1 <0>        -0.1428
     26 C19        -1.1158   -4.0017   -4.7843 C.3       1 <0>        -0.0815
     27 H1          1.2491    0.6179    1.3712 H         1 <0>         0.0825
     28 H2         -0.3190    0.8284    0.5557 H         1 <0>         0.0754
     29 H3         -0.2643    0.3979    2.2820 H         1 <0>         0.0756
     30 H4          0.1572   -0.8310   -1.1543 H         1 <0>         0.1365
     31 H5          0.1457   -3.2202   -1.7498 H         1 <0>         0.1457
     32 H6          0.2585   -4.2518    2.3870 H         1 <0>         0.1438
     33 H7          0.2783   -1.8625    2.9822 H         1 <0>         0.1377
     34 H8          2.6116   -4.3566    1.4280 H         1 <0>         0.1337
     35 H9          4.0962   -4.9137    3.3098 H         1 <0>         0.1422
     36 H10         4.2780   -8.9673    1.9694 H         1 <0>         0.1427
     37 H11         2.7837   -8.4154    0.0936 H         1 <0>         0.1354
     38 H12         4.6339   -7.5667    4.5946 H         1 <0>         0.3968
     39 H13         1.4972   -7.7932   -3.9116 H         1 <0>         0.1558
     40 H14        -0.2983   -6.6639   -5.5656 H         1 <0>         0.1563
     41 H15        -2.1121   -4.1608   -4.3716 H         1 <0>         0.0900
     42 H16        -0.7842   -2.9894   -4.5530 H         1 <0>         0.0778
     43 H17        -1.1447   -4.1364   -5.8656 H         1 <0>         0.0935
@<TRIPOS>BOND
     1    1    2 1
     2    1   27 1
     3    1   28 1
     4    1   29 1
     5    2    7 ar
     6    2    3 ar
     7    3    4 ar
     8    3   30 1
     9    4    5 ar
    10    4   31 1
    11    5    6 ar
    12    5    8 1
    13    6    7 ar
    14    6   32 1
    15    7   33 1
    16    8    9 2
    17    8   10 2
    18    8   11 1
    19   11   12 1
    20   11   19 am
    21   12   17 ar
    22   12   13 ar
    23   13   14 ar
    24   13   34 1
    25   14   15 ar
    26   14   35 1
    27   15   16 ar
    28   15   18 1
    29   16   17 ar
    30   16   36 1
    31   17   37 1
    32   18   38 1
    33   19   20 2
    34   19   21 1
    35   21   25 1
    36   21   22 2
    37   22   23 1
    38   22   39 1
    39   23   24 2
    40   23   40 1
    41   24   25 1
    42   24   26 1
    43   26   41 1
    44   26   42 1
    45   26   43 1
@<TRIPOS>MOLECULE
ZINC06915700
   45    48     0     0     0
SMALL
USER_CHARGES
3-(p-tolyl)-5-(pyrrolidin-1-ylcarbonylmethylsulfanyl)-2,4,6,7-tetrazabicyclo[4.3.0]nona-2,4,9-trien-8-one
@<TRIPOS>ATOM
      1 C1         -8.9629    1.3908    0.0904 C.3       1 <0>        -0.1233
      2 C2         -7.4898    1.7086    0.0793 C.ar      1 <0>        -0.0491
      3 C3         -7.0694    3.0267    0.0821 C.ar      1 <0>        -0.1346
      4 C4         -5.7221    3.3241    0.0715 C.ar      1 <0>        -0.0562
      5 C5         -4.7832    2.2925    0.0580 C.ar      1 <0>        -0.0711
      6 C6         -5.2134    0.9656    0.0494 C.ar      1 <0>        -0.0500
      7 C7         -6.5634    0.6810    0.0659 C.ar      1 <0>        -0.1322
      8 C8         -3.3356    2.6048    0.0466 C.2       1 <0>         0.4436
      9 N1         -2.4549    1.6129    0.0334 N.2       1 <0>        -0.5163
     10 C9         -1.1453    1.8795    0.0170 C.2       1 <0>         0.3632
     11 C10        -0.0126    1.0758    0.0080 C.2       1 <0>        -0.3243
     12 C11         1.1034    1.9141    0.0018 C.2       1 <0>         0.5543
     13 O1          2.2683    1.5509   -0.0105 O.2       1 <0>        -0.5238
     14 N2          0.6769    3.1922    0.0122 N.am      1 <0>        -0.5045
     15 H1          1.2440    3.9791    0.0112 H         1 <0>         0.4410
     16 N3         -0.7213    3.1924    0.0253 N.pl3     1 <0>        -0.3296
     17 C12        -1.6526    4.1904    0.0391 C.2       1 <0>         0.3932
     18 N4         -2.9395    3.8800    0.0494 N.2       1 <0>        -0.5612
     19 S1         -1.1459    5.8780    0.0424 S.3       1 <0>         0.1204
     20 C13        -2.7627    6.6915    0.0618 C.3       1 <0>        -0.1464
     21 C14        -2.5728    8.1864    0.0672 C.2       1 <0>         0.5470
     22 O2         -1.4544    8.6557    0.0588 O.2       1 <0>        -0.5225
     23 N5         -3.6457    9.0020    0.0815 N.am      1 <0>        -0.6107
     24 C15        -5.0508    8.5694    0.0864 C.3       1 <0>         0.0923
     25 C16        -5.9224    9.8428    0.0786 C.3       1 <0>        -0.1326
     26 C17        -4.9653   10.9129   -0.5097 C.3       1 <0>        -0.1352
     27 C18        -3.6047   10.4756    0.0882 C.3       1 <0>         0.1045
     28 H2         -9.3268    1.3191   -0.9346 H         1 <0>         0.0774
     29 H3         -9.1259    0.4417    0.6010 H         1 <0>         0.0717
     30 H4         -9.5012    2.1816    0.6127 H         1 <0>         0.0709
     31 H5         -7.7973    3.8244    0.0922 H         1 <0>         0.1313
     32 H6         -5.3952    4.3534    0.0733 H         1 <0>         0.1349
     33 H7         -4.4913    0.1627    0.0341 H         1 <0>         0.1421
     34 H8         -6.8978   -0.3459    0.0642 H         1 <0>         0.1328
     35 H9          0.0021   -0.0041    0.0020 H         1 <0>         0.1812
     36 H10        -3.3267    6.4001   -0.8242 H         1 <0>         0.1375
     37 H11        -3.3097    6.3914    0.9556 H         1 <0>         0.1376
     38 H12        -5.2576    7.9710   -0.8009 H         1 <0>         0.0754
     39 H13        -5.2563    7.9873    0.9848 H         1 <0>         0.0755
     40 H14        -6.2271   10.1121    1.0899 H         1 <0>         0.0812
     41 H15        -6.7922    9.7081   -0.5644 H         1 <0>         0.0875
     42 H16        -5.2389   11.9115   -0.1690 H         1 <0>         0.0899
     43 H17        -4.9471   10.8646   -1.5985 H         1 <0>         0.0791
     44 H18        -3.5012   10.8476    1.1075 H         1 <0>         0.0747
     45 H19        -2.7843   10.8352   -0.5329 H         1 <0>         0.0835
@<TRIPOS>BOND
     1    1    2 1
     2    1   28 1
     3    1   29 1
     4    1   30 1
     5    2    7 ar
     6    2    3 ar
     7    3    4 ar
     8    3   31 1
     9    4    5 ar
    10    4   32 1
    11    5    6 ar
    12    5    8 1
    13    6    7 ar
    14    6   33 1
    15    7   34 1
    16    8   18 1
    17    8    9 2
    18    9   10 1
    19   10   16 1
    20   10   11 2
    21   11   12 1
    22   11   35 1
    23   12   13 2
    24   12   14 am
    25   14   15 1
    26   14   16 1
    27   16   17 1
    28   17   18 2
    29   17   19 1
    30   19   20 1
    31   20   21 1
    32   20   36 1
    33   20   37 1
    34   21   22 2
    35   21   23 am
    36   23   27 1
    37   23   24 1
    38   24   25 1
    39   24   38 1
    40   24   39 1
    41   25   26 1
    42   25   40 1
    43   25   41 1
    44   26   27 1
    45   26   42 1
    46   26   43 1
    47   27   44 1
    48   27   45 1
@<TRIPOS>MOLECULE
ZINC32882509
   52    56     0     0     0
SMALL
USER_CHARGES
2-morpholino-N-(2-phenyl-5,6-dihydro-4H-cyclopenta[c]pyrazol-3-yl)pyridine-3-carboxamide
@<TRIPOS>ATOM
      1 C1          0.0577    4.6954    4.9324 C.ar      1 <0>        -0.1167
      2 C2         -0.3914    5.7102    4.1074 C.ar      1 <0>        -0.1015
      3 C3         -0.0638    5.7075    2.7657 C.ar      1 <0>        -0.1073
      4 C4          0.7174    4.6844    2.2454 C.ar      1 <0>         0.1521
      5 C5          1.1673    3.6670    3.0763 C.ar      1 <0>        -0.1201
      6 C6          0.8363    3.6753    4.4172 C.ar      1 <0>        -0.1007
      7 N1          1.0512    4.6786    0.8842 N.pl3     1 <0>        -0.3277
      8 C7          2.2641    4.3586    0.3576 C.2       1 <0>         0.3198
      9 C8          2.1659    4.4766   -0.9966 C.2       1 <0>        -0.2238
     10 C9          0.8643    4.8859   -1.2988 C.2       1 <0>         0.0617
     11 N2          0.1978    5.0068   -0.1759 N.2       1 <0>        -0.2534
     12 C10         0.7167    5.0341   -2.7980 C.3       1 <0>        -0.0380
     13 C11         1.9075    4.2592   -3.4010 C.3       1 <0>        -0.1117
     14 C12         2.9609    4.3280   -2.2750 C.3       1 <0>        -0.0340
     15 N3          3.3984    3.9776    1.0717 N.am      1 <0>        -0.6777
     16 C13         3.7326    2.6750    1.1608 C.2       1 <0>         0.5691
     17 O1          3.1022    1.8415    0.5387 O.2       1 <0>        -0.4662
     18 C14         4.8621    2.2605    2.0122 C.ar      1 <0>        -0.1604
     19 C15         5.6456    3.2150    2.6715 C.ar      1 <0>        -0.0381
     20 C16         6.6914    2.7741    3.4625 C.ar      1 <0>        -0.1791
     21 C17         6.9386    1.4170    3.5712 C.ar      1 <0>         0.1417
     22 N4          6.1923    0.5334    2.9381 N.ar      1 <0>        -0.5119
     23 C18         5.1760    0.9000    2.1723 C.ar      1 <0>         0.3527
     24 N5          4.4200   -0.0609    1.5264 N.pl3     1 <0>        -0.4680
     25 C19         3.6875   -0.8922    2.4927 C.3       1 <0>         0.0278
     26 C20         2.8198   -1.9009    1.7353 C.3       1 <0>         0.0649
     27 O2          3.6494   -2.6805    0.8697 O.3       1 <0>        -0.3819
     28 C21         4.3770   -1.9027   -0.0848 C.3       1 <0>         0.0644
     29 C22         5.2604   -0.8940    0.6541 C.3       1 <0>         0.0268
     30 H1         -0.1998    4.6997    5.9812 H         1 <0>         0.1307
     31 H2         -0.9994    6.5056    4.5126 H         1 <0>         0.1339
     32 H3         -0.4186    6.4980    2.1210 H         1 <0>         0.1333
     33 H4          1.7751    2.8699    2.6745 H         1 <0>         0.1228
     34 H5          1.1862    2.8845    5.0641 H         1 <0>         0.1306
     35 H6         -0.2459    4.6069   -3.1157 H         1 <0>         0.0845
     36 H7          0.7510    6.1003   -3.0662 H         1 <0>         0.0914
     37 H8          1.5964    3.2294   -3.6304 H         1 <0>         0.0773
     38 H9          2.2387    4.7565   -4.3246 H         1 <0>         0.0855
     39 H10         3.6260    5.1957   -2.3961 H         1 <0>         0.0760
     40 H11         3.5628    3.4085   -2.2277 H         1 <0>         0.0720
     41 H12         4.0210    4.7400    1.5627 H         1 <0>         0.4297
     42 H13         5.4365    4.2695    2.5681 H         1 <0>         0.1412
     43 H14         7.3130    3.4841    3.9877 H         1 <0>         0.1471
     44 H15         7.7584    1.0751    4.1856 H         1 <0>         0.1641
     45 H16         4.4040   -1.4289    3.1319 H         1 <0>         0.0581
     46 H17         3.0478   -0.2512    3.1171 H         1 <0>         0.0812
     47 H18         2.3135   -2.5618    2.4543 H         1 <0>         0.1020
     48 H19         2.0678   -1.3631    1.1392 H         1 <0>         0.0647
     49 H20         5.0068   -2.5667   -0.6951 H         1 <0>         0.1025
     50 H21         3.6707   -1.3667   -0.7359 H         1 <0>         0.0649
     51 H22         5.7788   -0.2543   -0.0753 H         1 <0>         0.0836
     52 H23         6.0023   -1.4308    1.2636 H         1 <0>         0.0600
@<TRIPOS>BOND
     1    1    6 ar
     2    1    2 ar
     3    1   30 1
     4    2    3 ar
     5    2   31 1
     6    3    4 ar
     7    3   32 1
     8    4    5 ar
     9    4    7 1
    10    5    6 ar
    11    5   33 1
    12    6   34 1
    13    7   11 1
    14    7    8 1
    15    8    9 2
    16    8   15 1
    17    9   14 1
    18    9   10 1
    19   10   11 2
    20   10   12 1
    21   12   13 1
    22   12   35 1
    23   12   36 1
    24   13   14 1
    25   13   37 1
    26   13   38 1
    27   14   39 1
    28   14   40 1
    29   15   16 am
    30   15   41 1
    31   16   17 2
    32   16   18 1
    33   18   23 ar
    34   18   19 ar
    35   19   20 ar
    36   19   42 1
    37   20   21 ar
    38   20   43 1
    39   21   22 ar
    40   21   44 1
    41   22   23 ar
    42   23   24 1
    43   24   29 1
    44   24   25 1
    45   25   26 1
    46   25   45 1
    47   25   46 1
    48   26   27 1
    49   26   47 1
    50   26   48 1
    51   27   28 1
    52   28   29 1
    53   28   49 1
    54   28   50 1
    55   29   51 1
    56   29   52 1
@<TRIPOS>MOLECULE
ZINC54565760
   49    52     0     0     0
SMALL
USER_CHARGES

@<TRIPOS>ATOM
      1 C1         -0.3382    1.7685    0.0054 C.3       1 <0>        -0.0899
      2 C2         -1.8074    1.4992    0.2054 C.2       1 <0>         0.0822
      3 C3         -2.4038    0.2953    0.1464 C.2       1 <0>        -0.2886
      4 C4         -3.7836    0.4771    0.3905 C.2       1 <0>         0.3298
      5 N1         -3.9920    1.7537    0.5876 N.2       1 <0>        -0.3513
      6 O1         -2.7463    2.4185    0.4791 O.3       1 <0>        -0.0684
      7 N2         -4.7521   -0.5266    0.4166 N.am      1 <0>        -0.6330
      8 C5         -4.4000   -1.8087    0.1958 C.2       1 <0>         0.5357
      9 O2         -3.2412   -2.0898   -0.0257 O.2       1 <0>        -0.4991
     10 C6         -5.4462   -2.8930    0.2240 C.3       1 <0>        -0.1554
     11 C7         -4.7869   -4.2452   -0.0550 C.3       1 <0>         0.1023
     12 N3         -5.8040   -5.2992   -0.0275 N.am      1 <0>        -0.5280
     13 C8         -6.4343   -5.6454   -1.1794 C.2       1 <0>         0.4059
     14 N4         -7.3468   -6.5800   -1.1964 N.2       1 <0>        -0.4873
     15 C9         -7.6868   -7.2235   -0.0830 C.2       1 <0>         0.1047
     16 C10        -7.0903   -6.9359    1.1548 C.2       1 <0>        -0.2480
     17 C11        -6.0906   -5.9086    1.1380 C.2       1 <0>         0.5533
     18 O3         -5.5125   -5.5897    2.1626 O.2       1 <0>        -0.5161
     19 C12        -7.5632   -7.7241    2.2920 C.2       1 <0>        -0.0504
     20 C13        -8.5196   -8.6437    2.0440 C.2       1 <0>        -0.1684
     21 S1         -8.8409   -8.5147    0.3055 S.3       1 <0>         0.1472
     22 C14        -9.1660   -9.5692    3.0290 C.3       1 <0>        -0.0324
     23 C15        -8.8470   -9.0690    4.4452 C.3       1 <0>        -0.0868
     24 H1         -9.4134   -8.1601    4.6481 H         1 <0>         0.0767
     25 C16        -7.3476   -8.7707    4.5350 C.3       1 <0>        -0.1179
     26 C17        -7.0136   -7.5322    3.7028 C.3       1 <0>        -0.0587
     27 C18        -9.2213  -10.1455    5.4660 C.3       1 <0>        -0.1474
     28 C19        -6.0752   -4.9383   -2.4608 C.3       1 <0>        -0.1138
     29 H2         -0.1460    2.8357    0.1167 H         1 <0>         0.0867
     30 H3          0.2369    1.2163    0.7487 H         1 <0>         0.0982
     31 H4         -0.0429    1.4484   -0.9938 H         1 <0>         0.0983
     32 H5         -1.9137   -0.6461   -0.0532 H         1 <0>         0.1828
     33 H6         -5.6789   -0.3018    0.5938 H         1 <0>         0.4244
     34 H7         -5.9199   -2.9153    1.2054 H         1 <0>         0.1150
     35 H8         -6.1989   -2.6916   -0.5382 H         1 <0>         0.1111
     36 H9         -4.3132   -4.2228   -1.0364 H         1 <0>         0.1125
     37 H10        -4.0343   -4.4466    0.7073 H         1 <0>         0.1167
     38 H11       -10.2451   -9.5731    2.8755 H         1 <0>         0.0844
     39 H12        -8.7725  -10.5773    2.8984 H         1 <0>         0.0869
     40 H13        -7.0754   -8.5923    5.5752 H         1 <0>         0.0722
     41 H14        -6.7852   -9.6240    4.1559 H         1 <0>         0.0662
     42 H15        -5.9323   -7.4019    3.6590 H         1 <0>         0.0861
     43 H16        -7.4713   -6.6532    4.1568 H         1 <0>         0.0781
     44 H17        -8.6498  -11.0516    5.2646 H         1 <0>         0.0576
     45 H18        -8.9940   -9.7884    6.4705 H         1 <0>         0.0596
     46 H19       -10.2866  -10.3634    5.3902 H         1 <0>         0.0581
     47 H20        -5.2041   -5.4171   -2.9081 H         1 <0>         0.1065
     48 H21        -6.9152   -4.9924   -3.1533 H         1 <0>         0.1104
     49 H22        -5.8466   -3.8941   -2.2478 H         1 <0>         0.0914
@<TRIPOS>BOND
     1    1    2 1
     2    1   29 1
     3    1   30 1
     4    1   31 1
     5    2    6 1
     6    2    3 2
     7    3    4 1
     8    3   32 1
     9    4    5 2
    10    4    7 1
    11    5    6 1
    12    7    8 am
    13    7   33 1
    14    8    9 2
    15    8   10 1
    16   10   11 1
    17   10   34 1
    18   10   35 1
    19   11   12 1
    20   11   36 1
    21   11   37 1
    22   12   17 am
    23   12   13 1
    24   13   14 2
    25   13   28 1
    26   14   15 1
    27   15   21 1
    28   15   16 2
    29   16   17 1
    30   16   19 1
    31   17   18 2
    32   19   26 1
    33   19   20 2
    34   20   21 1
    35   20   22 1
    36   22   23 1
    37   22   38 1
    38   22   39 1
    39   23   24 1
    40   23   25 1
    41   23   27 1
    42   25   26 1
    43   25   40 1
    44   25   41 1
    45   26   42 1
    46   26   43 1
    47   27   44 1
    48   27   45 1
    49   27   46 1
    50   28   47 1
    51   28   48 1
    52   28   49 1
@<TRIPOS>MOLECULE
ZINC65239883
   55    58     0     0     0
SMALL
USER_CHARGES

@<TRIPOS>ATOM
      1 C1         -0.0394    1.4947    0.4195 C.3       1 <0>        -0.1485
      2 C2         -0.0079   -0.0191    0.1997 C.3       1 <0>        -0.0939
      3 C3          0.8570   -0.3390   -1.0216 C.3       1 <0>        -0.1316
      4 C4          0.8581   -1.8524   -1.2592 C.3       1 <0>         0.1163
      5 N1          1.2851   -2.5247   -0.0245 N.pl3     1 <0>        -0.5879
      6 C5          0.5783   -2.2193    1.2268 C.3       1 <0>         0.1182
      7 C6          0.5804   -0.7018    1.4366 C.3       1 <0>        -0.1311
      8 C7          2.3344   -3.4300   -0.0400 C.ar      1 <0>         0.4669
      9 C8          2.8614   -3.8814   -1.2487 C.ar      1 <0>        -0.3032
     10 C9          3.9122   -4.7883   -1.2104 C.ar      1 <0>         0.4212
     11 N2          4.3755   -5.1913   -0.0299 N.ar      1 <0>        -0.5763
     12 C10         3.8515   -4.7422    1.0919 C.ar      1 <0>         0.3789
     13 N3          2.8575   -3.8771    1.0990 N.ar      1 <0>        -0.5800
     14 N4          4.4745   -5.2709   -2.3939 N.pl3     1 <0>        -0.4107
     15 C11         5.4345   -6.2327   -2.4961 C.2       1 <0>         0.0714
     16 C12         5.6892   -6.3942   -3.8260 C.2       1 <0>        -0.0613
     17 N5          4.8870   -5.5353   -4.5063 N.2       1 <0>        -0.4478
     18 C13         4.1593   -4.8702   -3.6573 C.2       1 <0>         0.2077
     19 C14         6.6597   -7.3315   -4.4180 C.2       1 <0>         0.6061
     20 O1          7.3238   -8.0537   -3.6993 O.2       1 <0>        -0.5373
     21 N6          6.8115   -7.3885   -5.7560 N.am      1 <0>        -0.7132
     22 C15         7.7765   -8.3204   -6.3446 C.3       1 <0>         0.1456
     23 C16         9.1636   -7.6750   -6.3619 C.3       1 <0>        -0.1296
     24 C17        10.1714   -8.6483   -6.9767 C.3       1 <0>        -0.1174
     25 C18         9.7476   -8.9849   -8.4078 C.3       1 <0>        -0.1226
     26 C19         8.3605   -9.6303   -8.3905 C.3       1 <0>        -0.1160
     27 C20         7.3527   -8.6570   -7.7757 C.3       1 <0>        -0.1264
     28 H1          0.9742    1.8586    0.5879 H         1 <0>         0.0548
     29 H2         -0.4584    1.9812   -0.4613 H         1 <0>         0.0567
     30 H3         -0.6564    1.7229    1.2886 H         1 <0>         0.0574
     31 H4         -1.0217   -0.3828    0.0318 H         1 <0>         0.0735
     32 H5          0.4508    0.1665   -1.8977 H         1 <0>         0.0809
     33 H6          1.8770    0.0022   -0.8445 H         1 <0>         0.0688
     34 H7         -0.1464   -2.1812   -1.5256 H         1 <0>         0.0763
     35 H8          1.5502   -2.0952   -2.0656 H         1 <0>         0.0852
     36 H9         -0.4490   -2.5780    1.1631 H         1 <0>         0.0684
     37 H10         1.0858   -2.7041    2.0608 H         1 <0>         0.1010
     38 H11         1.6029   -0.3572    1.5906 H         1 <0>         0.0682
     39 H12        -0.0228   -0.4544    2.3101 H         1 <0>         0.0784
     40 H13         2.4625   -3.5351   -2.1908 H         1 <0>         0.1502
     41 H14         4.2510   -5.0895    2.0333 H         1 <0>         0.2089
     42 H15         5.9034   -6.7641   -1.6811 H         1 <0>         0.1992
     43 H16         3.4257   -4.1198   -3.9126 H         1 <0>         0.2184
     44 H17         6.2818   -6.8125   -6.3292 H         1 <0>         0.4078
     45 H18         7.8082   -9.2339   -5.7507 H         1 <0>         0.0894
     46 H19         9.1319   -6.7615   -6.9558 H         1 <0>         0.0638
     47 H20         9.4655   -7.4352   -5.3424 H         1 <0>         0.0677
     48 H21        11.1595   -8.1884   -6.9890 H         1 <0>         0.0650
     49 H22        10.2031   -9.5617   -6.3828 H         1 <0>         0.0649
     50 H23         9.7159   -8.0714   -9.0017 H         1 <0>         0.0627
     51 H24        10.4656   -9.6783   -8.8457 H         1 <0>         0.0640
     52 H25         8.0586   -9.8701   -9.4100 H         1 <0>         0.0675
     53 H26         8.3922  -10.5438   -7.7966 H         1 <0>         0.0655
     54 H27         6.3646   -9.1169   -7.7634 H         1 <0>         0.0692
     55 H28         7.3210   -7.7436   -8.3696 H         1 <0>         0.0688
@<TRIPOS>BOND
     1    1    2 1
     2    1   28 1
     3    1   29 1
     4    1   30 1
     5    2    7 1
     6    2    3 1
     7    2   31 1
     8    3    4 1
     9    3   32 1
    10    3   33 1
    11    4    5 1
    12    4   34 1
    13    4   35 1
    14    5    6 1
    15    5    8 1
    16    6    7 1
    17    6   36 1
    18    6   37 1
    19    7   38 1
    20    7   39 1
    21    8   13 ar
    22    8    9 ar
    23    9   10 ar
    24    9   40 1
    25   10   11 ar
    26   10   14 1
    27   11   12 ar
    28   12   13 ar
    29   12   41 1
    30   14   18 1
    31   14   15 1
    32   15   16 2
    33   15   42 1
    34   16   17 1
    35   16   19 1
    36   17   18 2
    37   18   43 1
    38   19   20 2
    39   19   21 am
    40   21   22 1
    41   21   44 1
    42   22   27 1
    43   22   23 1
    44   22   45 1
    45   23   24 1
    46   23   46 1
    47   23   47 1
    48   24   25 1
    49   24   48 1
    50   24   49 1
    51   25   26 1
    52   25   50 1
    53   25   51 1
    54   26   27 1
    55   26   52 1
    56   26   53 1
    57   27   54 1
    58   27   55 1
@<TRIPOS>MOLECULE
ZINC67136524
   48    52     0     0     0
SMALL
USER_CHARGES

@<TRIPOS>ATOM
      1 C1         -0.3532    1.4763    0.0492 C.3       1 <0>        -0.0969
      2 C2         -0.1416   -0.0155    0.0187 C.2       1 <0>         0.1277
      3 C3         -0.1693   -0.8199   -1.0853 C.2       1 <0>        -0.1072
      4 N1          0.0648   -2.0850   -0.6963 N.2       1 <0>        -0.2043
      5 N2          0.2364   -2.1195    0.5793 N.2       1 <0>        -0.0215
      6 N3          0.1178   -0.8141    1.0770 N.pl3     1 <0>        -0.3056
      7 C4          0.2414   -0.4155    2.4134 C.ar      1 <0>         0.1433
      8 C5          1.0217    0.6700    2.7443 C.ar      1 <0>        -0.0825
      9 C6          1.1533    1.0770    4.0687 C.ar      1 <0>        -0.1079
     10 C7          0.5147    0.4135    5.0722 C.ar      1 <0>        -0.0738
     11 C8         -0.2903   -0.6977    4.7750 C.ar      1 <0>        -0.0953
     12 C9         -0.4373   -1.1196    3.4309 C.ar      1 <0>         0.1398
     13 N4         -1.2058   -2.1739    3.1444 N.ar      1 <0>        -0.4616
     14 C10        -1.8385   -2.8322    4.0851 C.ar      1 <0>         0.1440
     15 C11        -1.7423   -2.4671    5.4262 C.ar      1 <0>        -0.1674
     16 C12        -0.9634   -1.4055    5.7893 C.ar      1 <0>        -0.0525
     17 C13        -0.4146   -0.3751   -2.4702 C.2       1 <0>         0.6121
     18 O1         -0.6155    0.8010   -2.7045 O.2       1 <0>        -0.5349
     19 N5         -0.4159   -1.2724   -3.4759 N.am      1 <0>        -0.7134
     20 C14        -0.6595   -0.8307   -4.8513 C.3       1 <0>         0.1272
     21 C15        -0.6076   -2.0369   -5.7911 C.3       1 <0>         0.0676
     22 H1         -1.3571   -2.7765   -5.5096 H         1 <0>         0.0972
     23 C16        -0.7989   -1.5949   -7.2613 C.3       1 <0>        -0.1005
     24 C17         0.1322   -2.5396   -7.9963 C.ar      1 <0>        -0.1744
     25 C18         0.2454   -2.8772   -9.3268 C.ar      1 <0>        -0.0696
     26 C19         1.2005   -3.7939   -9.7286 C.ar      1 <0>        -0.1474
     27 C20         2.0388   -4.3678   -8.7904 C.ar      1 <0>        -0.0845
     28 C21         1.9293   -4.0288   -7.4579 C.ar      1 <0>        -0.1366
     29 C22         0.9729   -3.1038   -7.0457 C.ar      1 <0>         0.1048
     30 O2          0.7063   -2.6206   -5.7985 O.3       1 <0>        -0.2966
     31 H2          0.5862    1.9812   -0.1758 H         1 <0>         0.0961
     32 H3         -1.1012    1.7524   -0.6941 H         1 <0>         0.1112
     33 H4         -0.6978    1.7742    1.0394 H         1 <0>         0.0760
     34 H5          1.5384    1.2121    1.9661 H         1 <0>         0.1423
     35 H6          1.7710    1.9310    4.3041 H         1 <0>         0.1450
     36 H7          0.6276    0.7416    6.0949 H         1 <0>         0.1425
     37 H8         -2.4505   -3.6796    3.8134 H         1 <0>         0.1648
     38 H9         -2.2757   -3.0286    6.1790 H         1 <0>         0.1445
     39 H10        -0.8764   -1.1093    6.8242 H         1 <0>         0.1471
     40 H11        -0.2556   -2.2106   -3.2890 H         1 <0>         0.4137
     41 H12        -1.6422   -0.3632   -4.9141 H         1 <0>         0.0943
     42 H13         0.1049   -0.1101   -5.1423 H         1 <0>         0.0832
     43 H14        -1.8312   -1.7390   -7.5802 H         1 <0>         0.0974
     44 H15        -0.4910   -0.5584   -7.3997 H         1 <0>         0.0968
     45 H16        -0.4116   -2.4268  -10.0562 H         1 <0>         0.1257
     46 H17         1.2914   -4.0600  -10.7714 H         1 <0>         0.1290
     47 H18         2.7829   -5.0855   -9.1026 H         1 <0>         0.1321
     48 H19         2.5875   -4.4822   -6.7315 H         1 <0>         0.1288
@<TRIPOS>BOND
     1    1    2 1
     2    1   31 1
     3    1   32 1
     4    1   33 1
     5    2    6 1
     6    2    3 2
     7    3    4 1
     8    3   17 1
     9    4    5 2
    10    5    6 1
    11    6    7 1
    12    7   12 ar
    13    7    8 ar
    14    8    9 ar
    15    8   34 1
    16    9   10 ar
    17    9   35 1
    18   10   11 ar
    19   10   36 1
    20   11   16 ar
    21   11   12 ar
    22   12   13 ar
    23   13   14 ar
    24   14   15 ar
    25   14   37 1
    26   15   16 ar
    27   15   38 1
    28   16   39 1
    29   17   18 2
    30   17   19 am
    31   19   20 1
    32   19   40 1
    33   20   21 1
    34   20   41 1
    35   20   42 1
    36   21   22 1
    37   21   30 1
    38   21   23 1
    39   23   24 1
    40   23   43 1
    41   23   44 1
    42   24   29 ar
    43   24   25 ar
    44   25   26 ar
    45   25   45 1
    46   26   27 ar
    47   26   46 1
    48   27   28 ar
    49   27   47 1
    50   28   29 ar
    51   28   48 1
    52   29   30 1
@<TRIPOS>MOLECULE
ZINC01135496
   46    48     0     0     0
SMALL
USER_CHARGES
3-methyl-2-nitro-N-(4-pyrrolidin-1-ylsulfonylphenyl)-benzamide
@<TRIPOS>ATOM
      1 C1         -4.1590    7.0112    2.3445 C.3       1 <0>        -0.1365
      2 C2         -4.0229    5.7141    1.5895 C.ar      1 <0>        -0.0396
      3 C3         -5.1324    5.1445    0.9900 C.ar      1 <0>        -0.0780
      4 C4         -5.0163    3.9538    0.2955 C.ar      1 <0>        -0.0834
      5 C5         -3.7915    3.3263    0.1959 C.ar      1 <0>        -0.0804
      6 C6         -2.6684    3.8954    0.7982 C.ar      1 <0>        -0.0928
      7 C7         -2.7938    5.0941    1.5029 C.ar      1 <0>         0.0266
      8 N1         -1.6092    5.7016    2.1500 N.pl3     1 <0>         0.0277
      9 O1         -0.9169    6.4918    1.5337 O.2       1 <0>        -0.1301
     10 O2         -1.3269    5.4113    3.2986 O.3       1 <0>        -0.1264
     11 C8         -1.3531    3.2289    0.6955 C.2       1 <0>         0.5529
     12 O3         -0.3766    3.7268    1.2211 O.2       1 <0>        -0.4898
     13 N2         -1.2364    2.0689    0.0192 N.am      1 <0>        -0.6638
     14 C9         -0.0147    1.3885    0.0035 C.ar      1 <0>         0.1961
     15 C10         1.1781    2.0999   -0.0125 C.ar      1 <0>        -0.1386
     16 C11         2.3827    1.4249   -0.0332 C.ar      1 <0>         0.0027
     17 C12         2.4023    0.0422   -0.0385 C.ar      1 <0>        -0.6903
     18 C13         1.2165   -0.6691   -0.0230 C.ar      1 <0>         0.0003
     19 C14         0.0084   -0.0002   -0.0018 C.ar      1 <0>        -0.1612
     20 S1          3.9414   -0.8151   -0.0655 S.o2      1 <0>         2.7099
     21 O4          4.9106    0.0731    0.4739 O.2       1 <0>        -0.9488
     22 O5          3.6987   -2.1028    0.4840 O.2       1 <0>        -0.9508
     23 N3          4.3448   -1.0471   -1.6548 N.pl3     1 <0>        -1.0125
     24 C15         3.9776   -2.2139   -2.4705 C.3       1 <0>         0.1177
     25 C16         4.5896   -2.0045   -3.8715 C.3       1 <0>        -0.1294
     26 C17         5.7473   -1.0086   -3.5974 C.3       1 <0>        -0.1299
     27 C18         5.1369   -0.1209   -2.4843 C.3       1 <0>         0.1120
     28 H1         -4.3895    6.8012    3.3890 H         1 <0>         0.0936
     29 H2         -3.2234    7.5671    2.2836 H         1 <0>         0.0738
     30 H3         -4.9627    7.6036    1.9071 H         1 <0>         0.0933
     31 H4         -6.0935    5.6316    1.0650 H         1 <0>         0.1557
     32 H5         -5.8861    3.5145   -0.1701 H         1 <0>         0.1538
     33 H6         -3.7020    2.3971   -0.3473 H         1 <0>         0.1483
     34 H7         -1.9998    1.7061   -0.4568 H         1 <0>         0.4159
     35 H8          1.1635    3.1798   -0.0081 H         1 <0>         0.1501
     36 H9          3.3106    1.9775   -0.0450 H         1 <0>         0.1465
     37 H10         1.2352   -1.7490   -0.0272 H         1 <0>         0.1466
     38 H11        -0.9173   -0.5564    0.0110 H         1 <0>         0.1387
     39 H12         4.3790   -3.1219   -2.0205 H         1 <0>         0.0755
     40 H13         2.8927   -2.2848   -2.5488 H         1 <0>         0.0660
     41 H14         3.8598   -1.5691   -4.5540 H         1 <0>         0.0765
     42 H15         4.9747   -2.9437   -4.2689 H         1 <0>         0.0833
     43 H16         5.9748   -0.4198   -4.4860 H         1 <0>         0.0851
     44 H17         6.6346   -1.5302   -3.2386 H         1 <0>         0.0787
     45 H18         4.4934    0.6439   -2.9191 H         1 <0>         0.0686
     46 H19         5.9266    0.3394   -1.8904 H         1 <0>         0.0862
@<TRIPOS>BOND
     1    1    2 1
     2    1   28 1
     3    1   29 1
     4    1   30 1
     5    2    7 ar
     6    2    3 ar
     7    3    4 ar
     8    3   31 1
     9    4    5 ar
    10    4   32 1
    11    5    6 ar
    12    5   33 1
    13    6    7 ar
    14    6   11 1
    15    7    8 1
    16    8    9 2
    17    8   10 1
    18   11   12 2
    19   11   13 am
    20   13   14 1
    21   13   34 1
    22   14   19 ar
    23   14   15 ar
    24   15   16 ar
    25   15   35 1
    26   16   17 ar
    27   16   36 1
    28   17   18 ar
    29   17   20 1
    30   18   19 ar
    31   18   37 1
    32   19   38 1
    33   20   21 2
    34   20   22 2
    35   20   23 1
    36   23   27 1
    37   23   24 1
    38   24   25 1
    39   24   39 1
    40   24   40 1
    41   25   26 1
    42   25   41 1
    43   25   42 1
    44   26   27 1
    45   26   43 1
    46   26   44 1
    47   27   45 1
    48   27   46 1
@<TRIPOS>MOLECULE
ZINC19404059
   55    59     0     0     0
SMALL
USER_CHARGES
2-pyrrolidin-1-yl-7-[(2-pyrrolidin-1-ylpyrimidin-4-yl)methyl]-3,5,6,8-tetrahydropyrido[4,3-e]pyrimidin-4-one
@<TRIPOS>ATOM
      1 C1          0.0224   -0.5749   -4.4937 C.ar      1 <0>        -0.2349
      2 C2          0.6289   -0.8826   -3.2857 C.ar      1 <0>         0.1722
      3 N1          0.3470   -0.1542   -2.2183 N.ar      1 <0>        -0.5491
      4 C3         -0.5038    0.8588   -2.2949 C.ar      1 <0>         0.4865
      5 N2         -1.1043    1.1755   -3.4326 N.ar      1 <0>        -0.5195
      6 C4         -0.8623    0.4909   -4.5384 C.ar      1 <0>         0.1970
      7 C5         -1.5449    0.8617   -5.8297 C.3       1 <0>         0.1008
      8 N3         -2.8654    0.2208   -5.8872 N.3       1 <0>        -0.5235
      9 C6         -3.6567    0.7431   -7.0130 C.3       1 <0>         0.0500
     10 C7         -4.8506   -0.1861   -7.2370 C.3       1 <0>        -0.0421
     11 C8         -5.5623   -0.4321   -5.9337 C.2       1 <0>        -0.2637
     12 C9         -4.9829   -0.1679   -4.7327 C.2       1 <0>         0.2016
     13 N4         -5.6575   -0.4134   -3.6050 N.2       1 <0>        -0.5699
     14 C10        -6.8788   -0.9032   -3.6217 C.2       1 <0>         0.5642
     15 N5         -7.5087   -1.1807   -4.7953 N.am      1 <0>        -0.6418
     16 H1         -8.5307   -1.5874   -4.7882 H         1 <0>         0.4446
     17 C11        -6.8711   -0.9534   -5.9622 C.2       1 <0>         0.5393
     18 O1         -7.4188   -1.1956   -7.0252 O.2       1 <0>        -0.5349
     19 N6         -7.5262   -1.1380   -2.4385 N.pl3     1 <0>        -0.4714
     20 C12        -7.7225   -2.5938   -2.2189 C.3       1 <0>         0.0377
     21 C13        -7.9540   -2.6937   -0.6901 C.3       1 <0>        -0.1203
     22 C14        -6.9847   -1.6310   -0.1236 C.3       1 <0>        -0.1287
     23 C15        -6.7230   -0.6619   -1.2914 C.3       1 <0>         0.0426
     24 C16        -3.5934    0.4035   -4.6274 C.3       1 <0>         0.1081
     25 N7         -0.7759    1.6001   -1.1582 N.pl3     1 <0>        -0.4465
     26 C17        -0.0127    1.0858    0.0080 C.3       1 <0>         0.0416
     27 C18        -0.7824    1.6071    1.2405 C.3       1 <0>        -0.1275
     28 C19        -2.2232    1.8500    0.7362 C.3       1 <0>        -0.1205
     29 C20        -2.1986    1.4551   -0.7560 C.3       1 <0>         0.0567
     30 H2          0.2344   -1.1536   -5.3806 H         1 <0>         0.1504
     31 H3          1.3234   -1.7068   -3.2171 H         1 <0>         0.1705
     32 H4         -1.6649    1.9540   -5.8805 H         1 <0>         0.0663
     33 H5         -0.9343    0.5201   -6.6785 H         1 <0>         0.1077
     34 H6         -4.0092    1.7573   -6.7741 H         1 <0>         0.0461
     35 H7         -3.0309    0.7759   -7.9170 H         1 <0>         0.0916
     36 H8         -5.5487    0.2789   -7.9486 H         1 <0>         0.0850
     37 H9         -4.4975   -1.1453   -7.6435 H         1 <0>         0.0834
     38 H10        -8.5909   -2.9384   -2.7995 H         1 <0>         0.0933
     39 H11        -6.8240   -3.1383   -2.5450 H         1 <0>         0.0616
     40 H12        -9.0069   -2.4702   -0.4633 H         1 <0>         0.0835
     41 H13        -7.7134   -3.7113   -0.3485 H         1 <0>         0.0837
     42 H14        -7.4577   -1.1202    0.7280 H         1 <0>         0.0820
     43 H15        -6.0584   -2.1209    0.2112 H         1 <0>         0.0760
     44 H16        -5.6575   -0.6620   -1.5647 H         1 <0>         0.0974
     45 H17        -7.0331    0.3594   -1.0253 H         1 <0>         0.0909
     46 H18        -3.0567   -0.1100   -3.8160 H         1 <0>         0.0953
     47 H19        -3.6652    1.4769   -4.3977 H         1 <0>         0.0733
     48 H20         0.0100   -0.0135   -0.0246 H         1 <0>         0.0738
     49 H21         1.0156    1.4750   -0.0262 H         1 <0>         0.0861
     50 H22        -0.7529    0.8503    2.0383 H         1 <0>         0.0760
     51 H23        -0.3149    2.5361    1.5989 H         1 <0>         0.0761
     52 H24        -2.9228    1.2240    1.3096 H         1 <0>         0.0774
     53 H25        -2.4850    2.9099    0.8706 H         1 <0>         0.0791
     54 H26        -2.8223    2.1242   -1.3669 H         1 <0>         0.0947
     55 H27        -2.5187    0.4139   -0.9093 H         1 <0>         0.0506
@<TRIPOS>BOND
     1    1    6 ar
     2    1    2 ar
     3    1   30 1
     4    2    3 ar
     5    2   31 1
     6    3    4 ar
     7    4    5 ar
     8    4   25 1
     9    5    6 ar
    10    6    7 1
    11    7    8 1
    12    7   32 1
    13    7   33 1
    14    8   24 1
    15    8    9 1
    16    9   10 1
    17    9   34 1
    18    9   35 1
    19   10   11 1
    20   10   36 1
    21   10   37 1
    22   11   17 1
    23   11   12 2
    24   12   13 1
    25   12   24 1
    26   13   14 2
    27   14   15 1
    28   14   19 1
    29   15   16 1
    30   15   17 am
    31   17   18 2
    32   19   23 1
    33   19   20 1
    34   20   21 1
    35   20   38 1
    36   20   39 1
    37   21   22 1
    38   21   40 1
    39   21   41 1
    40   22   23 1
    41   22   42 1
    42   22   43 1
    43   23   44 1
    44   23   45 1
    45   24   46 1
    46   24   47 1
    47   25   29 1
    48   25   26 1
    49   26   27 1
    50   26   48 1
    51   26   49 1
    52   27   28 1
    53   27   50 1
    54   27   51 1
    55   28   29 1
    56   28   52 1
    57   28   53 1
    58   29   54 1
    59   29   55 1
@<TRIPOS>MOLECULE
ZINC41091662
   38    40     0     0     0
SMALL
USER_CHARGES

@<TRIPOS>ATOM
      1 C1         -0.0232    1.3657    0.0400 C.ar      1 <0>        -0.0627
      2 C2          1.1598    2.0814    0.0257 C.ar      1 <0>        -0.1019
      3 C3          2.3744    1.4128    0.0005 C.ar      1 <0>         0.1968
      4 C4          2.3979    0.0178   -0.0105 C.ar      1 <0>         0.1450
      5 C5          1.2067   -0.6916    0.0040 C.ar      1 <0>        -0.0672
      6 C6          0.0002   -0.0165    0.0291 C.ar      1 <0>        -0.0290
      7 N1         -1.2702   -0.7761    0.0449 N.pl3     1 <0>         0.0327
      8 O1         -2.3261   -0.1877    0.0673 O.2       1 <0>        -0.1539
      9 O2         -1.2518   -1.9849    0.0354 O.3       1 <0>        -0.1493
     10 N2          3.6212   -0.6639   -0.0364 N.am      1 <0>        -0.6503
     11 C7          3.6858   -1.9134   -0.5374 C.2       1 <0>         0.6072
     12 O3          2.7051   -2.4116   -1.0587 O.2       1 <0>        -0.4844
     13 C8          4.9366   -2.6722   -0.4547 C.2       1 <0>        -0.0681
     14 C9          5.1397   -3.9387   -0.9248 C.2       1 <0>        -0.0983
     15 C10         6.4720   -4.2683   -0.6348 C.2       1 <0>        -0.1640
     16 C11         7.0188   -3.2014   -0.0074 C.2       1 <0>         0.0056
     17 O4          6.0914   -2.2399    0.0941 O.3       1 <0>        -0.1492
     18 Br1         8.7998   -3.0843    0.6171 Br        1 <0>         0.0733
     19 N3          3.5726    2.1349   -0.0144 N.pl3     1 <0>        -0.6847
     20 C12         4.1970    2.5402   -1.2838 C.3       1 <0>         0.1077
     21 C13         4.5104    4.0391   -1.2114 C.3       1 <0>         0.0465
     22 O5          5.2576    4.3068   -0.0224 O.3       1 <0>        -0.3774
     23 C14         4.5566    4.0120    1.1882 C.3       1 <0>         0.0467
     24 C15         4.2426    2.5167    1.2389 C.3       1 <0>         0.1033
     25 H1         -0.9681    1.8880    0.0642 H         1 <0>         0.1584
     26 H2          1.1379    3.1612    0.0339 H         1 <0>         0.1523
     27 H3          1.2212   -1.7714   -0.0048 H         1 <0>         0.1769
     28 H4          4.4218   -0.2368    0.3062 H         1 <0>         0.4236
     29 H5          4.4146   -4.5652   -1.4228 H         1 <0>         0.1758
     30 H6          6.9681   -5.1987   -0.8684 H         1 <0>         0.1741
     31 H7          5.1192    1.9792   -1.4349 H         1 <0>         0.0647
     32 H8          3.5105    2.3481   -2.1084 H         1 <0>         0.0822
     33 H9          5.0963    4.3310   -2.0830 H         1 <0>         0.1036
     34 H10         3.5792    4.6052   -1.1915 H         1 <0>         0.0558
     35 H11         5.1756    4.2845    2.0430 H         1 <0>         0.1042
     36 H12         3.6255    4.5781    1.2169 H         1 <0>         0.0555
     37 H13         3.5863    2.3090    2.0840 H         1 <0>         0.0835
     38 H14         5.1695    1.9532    1.3461 H         1 <0>         0.0650
@<TRIPOS>BOND
     1    1    6 ar
     2    1    2 ar
     3    1   25 1
     4    2    3 ar
     5    2   26 1
     6    3    4 ar
     7    3   19 1
     8    4    5 ar
     9    4   10 1
    10    5    6 ar
    11    5   27 1
    12    6    7 1
    13    7    8 2
    14    7    9 1
    15   10   11 am
    16   10   28 1
    17   11   12 2
    18   11   13 1
    19   13   17 1
    20   13   14 2
    21   14   15 1
    22   14   29 1
    23   15   16 2
    24   15   30 1
    25   16   17 1
    26   16   18 1
    27   19   24 1
    28   19   20 1
    29   20   21 1
    30   20   31 1
    31   20   32 1
    32   21   22 1
    33   21   33 1
    34   21   34 1
    35   22   23 1
    36   23   24 1
    37   23   35 1
    38   23   36 1
    39   24   37 1
    40   24   38 1
@<TRIPOS>MOLECULE
ZINC35482590
   46    50     0     0     0
SMALL
USER_CHARGES

@<TRIPOS>ATOM
      1 C1         -0.5847    1.4377    0.0770 C.3       1 <0>        -0.1383
      2 C2         -0.2691   -0.0353    0.0340 C.ar      1 <0>        -0.0118
      3 C3         -0.3457   -0.7324   -1.1719 C.ar      1 <0>        -0.1253
      4 C4         -0.0514   -2.0965   -1.2039 C.ar      1 <0>        -0.0792
      5 C5          0.3138   -2.7508   -0.0448 C.ar      1 <0>        -0.1111
      6 C6          0.3896   -2.0597    1.1498 C.ar      1 <0>        -0.0913
      7 C7          0.1036   -0.7004    1.1910 C.ar      1 <0>         0.1297
      8 N1          0.1872   -0.0032    2.4041 N.pl3     1 <0>        -0.3281
      9 C8          0.4193   -0.5435    3.6473 C.ar      1 <0>         0.2709
     10 C9          0.4150    0.5395    4.5454 C.ar      1 <0>        -0.0620
     11 C10         0.6288    0.2879    5.9076 C.ar      1 <0>         0.0194
     12 C11         0.8334   -1.0072    6.3048 C.ar      1 <0>        -0.1881
     13 C12         0.8243   -2.0258    5.3632 C.ar      1 <0>         0.1819
     14 N2          0.6230   -1.7766    4.0867 N.ar      1 <0>        -0.4858
     15 N3          0.1866    1.6659    3.8327 N.2       1 <0>        -0.2015
     16 N4          0.0564    1.3813    2.5846 N.2       1 <0>         0.0235
     17 C13        -0.7377   -0.0289   -2.4119 C.2       1 <0>         0.5623
     18 O1         -0.8823    1.1780   -2.4061 O.2       1 <0>        -0.5193
     19 N5         -0.9348   -0.7258   -3.5485 N.am      1 <0>        -0.7230
     20 C14        -1.3232   -0.0287   -4.7771 C.3       1 <0>         0.1670
     21 C15        -1.4788   -1.0283   -5.8941 C.ar      1 <0>        -0.1039
     22 C16        -0.3935   -1.3503   -6.6876 C.ar      1 <0>        -0.0870
     23 C17        -0.5311   -2.2671   -7.7131 C.ar      1 <0>        -0.1016
     24 C18        -1.7584   -2.8653   -7.9484 C.ar      1 <0>         0.0424
     25 C19        -2.8517   -2.5408   -7.1490 C.ar      1 <0>         0.0306
     26 C20        -2.7050   -1.6255   -6.1194 C.ar      1 <0>        -0.0808
     27 O2         -3.9328   -3.2556   -7.5775 O.3       1 <0>        -0.3072
     28 C21        -3.5924   -3.7119   -8.9000 C.3       1 <0>         0.2127
     29 O3         -2.1544   -3.7834   -8.8775 O.3       1 <0>        -0.3073
     30 H1          0.3185    2.0092   -0.1370 H         1 <0>         0.0822
     31 H2         -1.3457    1.6681   -0.6686 H         1 <0>         0.1030
     32 H3         -0.9552    1.7011    1.0677 H         1 <0>         0.0850
     33 H4         -0.1099   -2.6399   -2.1353 H         1 <0>         0.1344
     34 H5          0.5408   -3.8063   -0.0713 H         1 <0>         0.1434
     35 H6          0.6759   -2.5771    2.0536 H         1 <0>         0.1588
     36 H7          0.6327    1.0946    6.6258 H         1 <0>         0.1551
     37 H8          1.0014   -1.2343    7.3472 H         1 <0>         0.1569
     38 H9          0.9866   -3.0442    5.6841 H         1 <0>         0.1795
     39 H10        -0.8194   -1.6889   -3.5531 H         1 <0>         0.4021
     40 H11        -2.2695    0.4884   -4.6178 H         1 <0>         0.0832
     41 H12        -0.5535    0.6959   -5.0426 H         1 <0>         0.0859
     42 H13         0.5638   -0.8845   -6.5062 H         1 <0>         0.1422
     43 H14         0.3185   -2.5168   -8.3314 H         1 <0>         0.1398
     44 H15        -3.5500   -1.3753   -5.4951 H         1 <0>         0.1386
     45 H16        -4.0219   -4.6959   -9.0881 H         1 <0>         0.1347
     46 H17        -3.9285   -2.9963   -9.6504 H         1 <0>         0.0875
@<TRIPOS>BOND
     1    1    2 1
     2    1   30 1
     3    1   31 1
     4    1   32 1
     5    2    7 ar
     6    2    3 ar
     7    3    4 ar
     8    3   17 1
     9    4    5 ar
    10    4   33 1
    11    5    6 ar
    12    5   34 1
    13    6    7 ar
    14    6   35 1
    15    7    8 1
    16    8   16 1
    17    8    9 1
    18    9   14 ar
    19    9   10 ar
    20   10   11 ar
    21   10   15 1
    22   11   12 ar
    23   11   36 1
    24   12   13 ar
    25   12   37 1
    26   13   14 ar
    27   13   38 1
    28   15   16 2
    29   17   18 2
    30   17   19 am
    31   19   20 1
    32   19   39 1
    33   20   21 1
    34   20   40 1
    35   20   41 1
    36   21   26 ar
    37   21   22 ar
    38   22   23 ar
    39   22   42 1
    40   23   24 ar
    41   23   43 1
    42   24   29 1
    43   24   25 ar
    44   25   26 ar
    45   25   27 1
    46   26   44 1
    47   27   28 1
    48   28   29 1
    49   28   45 1
    50   28   46 1
@<TRIPOS>MOLECULE
ZINC67168641
   34    36     0     0     0
SMALL
USER_CHARGES

@<TRIPOS>ATOM
      1 C1         -0.0087    1.3857   -0.0274 C.ar      1 <0>        -0.0227
      2 C2          1.1765    2.0867   -0.0477 C.ar      1 <0>        -0.1257
      3 C3          2.3888    1.4057   -0.0688 C.ar      1 <0>         0.1972
      4 C4          2.4091    0.0152   -0.0697 C.ar      1 <0>        -0.1460
      5 C5          1.2278   -0.6924   -0.0494 C.ar      1 <0>        -0.0464
      6 C6          0.0078   -0.0115   -0.0278 C.ar      1 <0>        -0.1542
      7 C7         -1.2606   -0.7665   -0.0060 C.2       1 <0>         0.5721
      8 O1         -2.3213   -0.1725    0.0124 O.2       1 <0>        -0.5024
      9 N1         -1.2428   -2.1141   -0.0065 N.am      1 <0>        -0.6619
     10 C8         -2.4354   -2.8273    0.1109 C.ar      1 <0>         0.2643
     11 C9         -3.6136   -2.3500   -0.4623 C.ar      1 <0>        -0.1817
     12 C10        -4.7722   -3.0853   -0.3235 C.ar      1 <0>         0.1693
     13 N2         -4.7743   -4.2256    0.3411 N.ar      1 <0>        -0.4803
     14 C11        -3.6805   -4.7104    0.8977 C.ar      1 <0>         0.1986
     15 C12        -2.4795   -4.0385    0.7995 C.ar      1 <0>        -0.1413
     16 N3         -1.2562   -4.5931    1.4216 N.pl3     1 <0>         0.0485
     17 O2         -1.2817   -5.6877    1.9342 O.2       1 <0>        -0.1329
     18 O3         -0.2316   -3.9513    1.4171 O.3       1 <0>        -0.1800
     19 N4          3.5901    2.1207   -0.0894 N.pl3     1 <0>        -0.3240
     20 C13         4.8396    1.5866   -0.1165 C.2       1 <0>         0.0966
     21 C14         5.7228    2.6119   -0.1300 C.2       1 <0>        -0.2280
     22 C15         4.9956    3.8082   -0.1106 C.2       1 <0>         0.0956
     23 N5          3.7206    3.5156   -0.0920 N.2       1 <0>        -0.2719
     24 Br1         7.6069    2.4562   -0.1683 Br        1 <0>        -0.0021
     25 H1         -0.9497    1.9152   -0.0065 H         1 <0>         0.1512
     26 H2          1.1645    3.1666   -0.0478 H         1 <0>         0.1510
     27 H3          3.3524   -0.5104   -0.0868 H         1 <0>         0.1435
     28 H4          1.2443   -1.7723   -0.0506 H         1 <0>         0.1430
     29 H5         -0.4004   -2.5880   -0.0885 H         1 <0>         0.4275
     30 H6         -3.6188   -1.4176   -1.0071 H         1 <0>         0.1744
     31 H7         -5.6894   -2.7232   -0.7638 H         1 <0>         0.1844
     32 H8         -3.7250   -5.6471    1.4334 H         1 <0>         0.1901
     33 H9          5.0835    0.5345   -0.1254 H         1 <0>         0.1921
     34 H10         5.4157    4.8032   -0.1144 H         1 <0>         0.2023
@<TRIPOS>BOND
     1    1    6 ar
     2    1    2 ar
     3    1   25 1
     4    2    3 ar
     5    2   26 1
     6    3    4 ar
     7    3   19 1
     8    4    5 ar
     9    4   27 1
    10    5    6 ar
    11    5   28 1
    12    6    7 1
    13    7    8 2
    14    7    9 am
    15    9   10 1
    16    9   29 1
    17   10   15 ar
    18   10   11 ar
    19   11   12 ar
    20   11   30 1
    21   12   13 ar
    22   12   31 1
    23   13   14 ar
    24   14   15 ar
    25   14   32 1
    26   15   16 1
    27   16   17 2
    28   16   18 1
    29   19   23 1
    30   19   20 1
    31   20   21 2
    32   20   33 1
    33   21   22 1
    34   21   24 1
    35   22   23 2
    36   22   34 1
@<TRIPOS>MOLECULE
ZINC20008220
   40    42     0     0     0
SMALL
USER_CHARGES
4-bromo-N-[(1R)-1-indan-5-ylethyl]-3-methyl-aniline
@<TRIPOS>ATOM
      1 C1          4.4962   -3.4331   -3.8541 C.3       1 <0>        -0.1250
      2 C2          4.5939   -2.2425   -2.9354 C.ar      1 <0>        -0.0051
      3 C3          3.4546   -1.7309   -2.3455 C.ar      1 <0>        -0.1964
      4 C4          3.5447   -0.6304   -1.5031 C.ar      1 <0>         0.2449
      5 C5          4.7827   -0.0542   -1.2476 C.ar      1 <0>        -0.2063
      6 C6          5.9190   -0.5733   -1.8360 C.ar      1 <0>        -0.0355
      7 C7          5.8253   -1.6664   -2.6795 C.ar      1 <0>        -0.1560
      8 Br1         7.3837   -2.3743   -3.4833 Br        1 <0>        -0.0613
      9 N1          2.3933   -0.1074   -0.9091 N.pl3     1 <0>        -0.7478
     10 C8          2.4908    1.0498   -0.0160 C.3       1 <0>         0.1935
     11 H1          3.2795    1.7074   -0.4103 H         1 <0>         0.0869
     12 C9          2.8276    0.5751    1.3989 C.3       1 <0>        -0.1643
     13 C10         1.1748    1.7840    0.0004 C.ar      1 <0>        -0.0893
     14 C11        -0.0126    1.0758    0.0080 C.ar      1 <0>        -0.1132
     15 C12        -1.2174    1.7507    0.0173 C.ar      1 <0>        -0.1028
     16 C13        -1.2406    3.1354    0.0293 C.ar      1 <0>        -0.0970
     17 C14        -0.0536    3.8434    0.0217 C.ar      1 <0>        -0.0933
     18 C15         1.1537    3.1648    0.0075 C.ar      1 <0>        -0.0976
     19 C16        -0.3438    5.3290    0.0304 C.3       1 <0>        -0.0888
     20 C17        -1.8218    5.4544   -0.3961 C.3       1 <0>        -0.1172
     21 C18        -2.4098    4.0968    0.0438 C.3       1 <0>        -0.0813
     22 H2          3.4456   -3.7489   -3.9345 H         1 <0>         0.0688
     23 H3          5.0975   -4.2598   -3.4481 H         1 <0>         0.0782
     24 H4          4.8742   -3.1595   -4.8502 H         1 <0>         0.0782
     25 H5          2.4940   -2.1839   -2.5420 H         1 <0>         0.1266
     26 H6          4.8564    0.7991   -0.5897 H         1 <0>         0.1275
     27 H7          6.8817   -0.1260   -1.6375 H         1 <0>         0.1293
     28 H8          1.4136   -0.5645   -1.1120 H         1 <0>         0.4179
     29 H9          2.9008    1.4440    2.0695 H         1 <0>         0.0669
     30 H10         3.7882    0.0392    1.3869 H         1 <0>         0.0647
     31 H11         2.0360   -0.0992    1.7576 H         1 <0>         0.0623
     32 H12         0.0021   -0.0041    0.0020 H         1 <0>         0.1221
     33 H13        -2.1446    1.1968    0.0187 H         1 <0>         0.1218
     34 H14         2.0817    3.7173    0.0016 H         1 <0>         0.1209
     35 H15        -0.1794    5.7288    1.0419 H         1 <0>         0.0811
     36 H16         0.3263    5.8377   -0.6783 H         1 <0>         0.0757
     37 H17        -2.2820    6.3082    0.1228 H         1 <0>         0.0786
     38 H18        -1.8776    5.6127   -1.4832 H         1 <0>         0.0739
     39 H19        -3.1825    3.7449   -0.6556 H         1 <0>         0.0764
     40 H20        -2.8300    4.1478    1.0591 H         1 <0>         0.0823
@<TRIPOS>BOND
     1    1    2 1
     2    1   22 1
     3    1   23 1
     4    1   24 1
     5    2    7 ar
     6    2    3 ar
     7    3    4 ar
     8    3   25 1
     9    4    5 ar
    10    4    9 1
    11    5    6 ar
    12    5   26 1
    13    6    7 ar
    14    6   27 1
    15    7    8 1
    16    9   10 1
    17    9   28 1
    18   10   11 1
    19   10   12 1
    20   10   13 1
    21   12   29 1
    22   12   30 1
    23   12   31 1
    24   13   18 ar
    25   13   14 ar
    26   14   15 ar
    27   14   32 1
    28   15   16 ar
    29   15   33 1
    30   16   21 1
    31   16   17 ar
    32   17   18 ar
    33   17   19 1
    34   18   34 1
    35   19   20 1
    36   19   35 1
    37   19   36 1
    38   20   21 1
    39   20   37 1
    40   20   38 1
    41   21   39 1
    42   21   40 1
@<TRIPOS>MOLECULE
ZINC21808922
   30    31     0     0     0
SMALL
USER_CHARGES
4-bromo-N-[(1S)-1-(3-chloro-4-fluoro-phenyl)ethyl]-2-fluoro-aniline
@<TRIPOS>ATOM
      1 C1         -3.0868    0.9388   -1.3983 C.3       1 <0>        -0.1683
      2 C2         -2.5135    0.9779    0.0197 C.3       1 <0>         0.1946
      3 H1         -2.3402   -0.0381    0.4039 H         1 <0>         0.0963
      4 C3         -1.2195    1.7503    0.0173 C.ar      1 <0>        -0.0908
      5 C4         -0.0126    1.0758    0.0080 C.ar      1 <0>        -0.0733
      6 C5          1.1750    1.7825    0.0004 C.ar      1 <0>        -0.1354
      7 C6          1.1565    3.1668    0.0076 C.ar      1 <0>         0.1131
      8 C7         -0.0532    3.8421    0.0223 C.ar      1 <0>        -0.0701
      9 C8         -1.2403    3.1322    0.0298 C.ar      1 <0>        -0.0769
     10 Cl1        -0.0790    5.5779    0.0307 Cl        1 <0>        -0.0413
     11 F1          2.3170    3.8585    0.0006 F         1 <0>        -0.1230
     12 N1         -3.4707    1.6315    0.9156 N.pl3     1 <0>        -0.7477
     13 C9         -4.5035    0.8889    1.4978 C.ar      1 <0>         0.2144
     14 C10        -4.6261   -0.4663    1.2231 C.ar      1 <0>        -0.1764
     15 C11        -5.6440   -1.1985    1.8031 C.ar      1 <0>        -0.0452
     16 C12        -6.5476   -0.5811    2.6494 C.ar      1 <0>        -0.1277
     17 C13        -6.4325    0.7705    2.9220 C.ar      1 <0>        -0.0742
     18 C14        -5.4130    1.5080    2.3485 C.ar      1 <0>         0.0240
     19 F2         -5.3004    2.8277    2.6144 F         1 <0>        -0.1371
     20 Br1        -7.9433   -1.5865    3.4350 Br        1 <0>        -0.0448
     21 H2         -4.0313    0.3750   -1.3965 H         1 <0>         0.0694
     22 H3         -2.3680    0.4480   -2.0710 H         1 <0>         0.0722
     23 H4         -3.2732    1.9653   -1.7469 H         1 <0>         0.0653
     24 H5          0.0021   -0.0041    0.0020 H         1 <0>         0.1438
     25 H6          2.1173    1.2550   -0.0107 H         1 <0>         0.1500
     26 H7         -2.1836    3.6579    0.0416 H         1 <0>         0.1417
     27 H8         -3.3774    2.7062    1.1306 H         1 <0>         0.4246
     28 H9         -3.9238   -0.9487    0.5593 H         1 <0>         0.1402
     29 H10        -5.7371   -2.2536    1.5919 H         1 <0>         0.1387
     30 H11        -7.1395    1.2499    3.5828 H         1 <0>         0.1439
@<TRIPOS>BOND
     1    1    2 1
     2    1   21 1
     3    1   22 1
     4    1   23 1
     5    2    3 1
     6    2    4 1
     7    2   12 1
     8    4    9 ar
     9    4    5 ar
    10    5    6 ar
    11    5   24 1
    12    6    7 ar
    13    6   25 1
    14    7    8 ar
    15    7   11 1
    16    8    9 ar
    17    8   10 1
    18    9   26 1
    19   12   13 1
    20   12   27 1
    21   13   18 ar
    22   13   14 ar
    23   14   15 ar
    24   14   28 1
    25   15   16 ar
    26   15   29 1
    27   16   17 ar
    28   16   20 1
    29   17   18 ar
    30   17   30 1
    31   18   19 1
@<TRIPOS>MOLECULE
ZINC37057108
   40    42     0     0     0
SMALL
USER_CHARGES

@<TRIPOS>ATOM
      1 C1         -0.0184    1.5028    0.0103 C.3       1 <0>        -0.1061
      2 C2          0.0021   -0.0041    0.0020 C.ar      1 <0>        -0.1593
      3 C3          0.0057   -0.6888   -1.1975 C.ar      1 <0>        -0.0370
      4 C4          0.0244   -2.0718   -1.2060 C.ar      1 <0>        -0.1521
      5 C5          0.0391   -2.7736   -0.0137 C.ar      1 <0>        -0.0403
      6 C6          0.0355   -2.0948    1.1887 C.ar      1 <0>        -0.1932
      7 C7          0.0230   -0.7056    1.2005 C.ar      1 <0>         0.2381
      8 N1          0.0251   -0.0158    2.4154 N.pl3     1 <0>        -0.7354
      9 C8          0.0472   -0.7573    3.6787 C.3       1 <0>         0.1904
     10 H1          0.6478   -1.6591    3.5602 H         1 <0>         0.0888
     11 C9         -1.3811   -1.1434    4.0684 C.3       1 <0>        -0.1648
     12 C10         0.6462    0.1070    4.7581 C.ar      1 <0>        -0.0918
     13 C11         0.3315    1.4517    4.8219 C.ar      1 <0>        -0.1129
     14 C12         0.8816    2.2419    5.8119 C.ar      1 <0>        -0.1026
     15 C13         1.7481    1.6918    6.7419 C.ar      1 <0>        -0.0945
     16 C14         2.0627    0.3475    6.6780 C.ar      1 <0>        -0.0918
     17 C15         1.5055   -0.4446    5.6879 C.ar      1 <0>        -0.0956
     18 C16         3.0212   -0.0073    7.7946 C.3       1 <0>        -0.0845
     19 C17         3.5970    1.3412    8.2765 C.3       1 <0>        -0.1214
     20 C18         2.4734    2.3324    7.9058 C.3       1 <0>        -0.0851
     21 I1          0.0299   -3.1061   -3.0279 I         1 <0>        -0.0553
     22 H2          1.0042    1.8801    0.0026 H         1 <0>         0.0685
     23 H3         -0.5455    1.8639   -0.8728 H         1 <0>         0.0701
     24 H4         -0.5286    1.8543    0.9071 H         1 <0>         0.0590
     25 H5         -0.0064   -0.1438   -2.1298 H         1 <0>         0.1269
     26 H6          0.0530   -3.8535   -0.0235 H         1 <0>         0.1266
     27 H7          0.0470   -2.6432    2.1191 H         1 <0>         0.1291
     28 H8          0.0120    0.9540    2.4224 H         1 <0>         0.4009
     29 H9         -1.9818   -0.2416    4.1869 H         1 <0>         0.0610
     30 H10        -1.8143   -1.7686    3.2877 H         1 <0>         0.0651
     31 H11        -1.3647   -1.6951    5.0083 H         1 <0>         0.0675
     32 H12        -0.3435    1.8839    4.0980 H         1 <0>         0.1204
     33 H13         0.6356    3.2924    5.8610 H         1 <0>         0.1220
     34 H14         1.7471   -1.4962    5.6403 H         1 <0>         0.1221
     35 H15         2.4891   -0.5031    8.6065 H         1 <0>         0.0817
     36 H16         3.8198   -0.6468    7.4186 H         1 <0>         0.0763
     37 H17         3.7630    1.3289    9.3537 H         1 <0>         0.0785
     38 H18         4.5172    1.5819    7.7442 H         1 <0>         0.0732
     39 H19         2.8980    3.2905    7.6058 H         1 <0>         0.0759
     40 H20         1.7940    2.4660    8.7476 H         1 <0>         0.0815
@<TRIPOS>BOND
     1    1    2 1
     2    1   22 1
     3    1   23 1
     4    1   24 1
     5    2    7 ar
     6    2    3 ar
     7    3    4 ar
     8    3   25 1
     9    4    5 ar
    10    4   21 1
    11    5    6 ar
    12    5   26 1
    13    6    7 ar
    14    6   27 1
    15    7    8 1
    16    8    9 1
    17    8   28 1
    18    9   10 1
    19    9   11 1
    20    9   12 1
    21   11   29 1
    22   11   30 1
    23   11   31 1
    24   12   17 ar
    25   12   13 ar
    26   13   14 ar
    27   13   32 1
    28   14   15 ar
    29   14   33 1
    30   15   20 1
    31   15   16 ar
    32   16   17 ar
    33   16   18 1
    34   17   34 1
    35   18   19 1
    36   18   35 1
    37   18   36 1
    38   19   20 1
    39   19   37 1
    40   19   38 1
    41   20   39 1
    42   20   40 1
@<TRIPOS>MOLECULE
ZINC37202278
   36    37     0     0     0
SMALL
USER_CHARGES

@<TRIPOS>ATOM
      1 C1         -0.0184    1.5028    0.0103 C.3       1 <0>        -0.1088
      2 C2          0.0021   -0.0041    0.0020 C.ar      1 <0>        -0.1451
      3 C3          0.0057   -0.6874   -1.2004 C.ar      1 <0>        -0.0688
      4 C4          0.0244   -2.0681   -1.2116 C.ar      1 <0>        -0.2002
      5 C5          0.0396   -2.7708   -0.0132 C.ar      1 <0>         0.2162
      6 C6          0.0359   -2.0814    1.1925 C.ar      1 <0>        -0.1928
      7 C7          0.0229   -0.7002    1.1965 C.ar      1 <0>        -0.0380
      8 C8          0.0251    0.0488    2.5042 C.3       1 <0>        -0.1186
      9 N1          0.0581   -4.1674   -0.0209 N.pl3     1 <0>        -0.7436
     10 C9          0.0614   -4.8929   -1.2936 C.3       1 <0>         0.1895
     11 H1         -0.5388   -4.3494   -2.0233 H         1 <0>         0.0902
     12 C10         1.4977   -5.0172   -1.8060 C.3       1 <0>        -0.1653
     13 C11        -0.5198   -6.2682   -1.0894 C.ar      1 <0>        -0.0717
     14 C12        -0.2163   -6.9840    0.0536 C.ar      1 <0>        -0.1090
     15 C13        -0.7493   -8.2455    0.2412 C.ar      1 <0>        -0.0804
     16 C14        -1.5863   -8.7915   -0.7147 C.ar      1 <0>        -0.0993
     17 C15        -1.8898   -8.0751   -1.8580 C.ar      1 <0>        -0.0803
     18 C16        -1.3610   -6.8114   -2.0425 C.ar      1 <0>        -0.1045
     19 I1         -2.3939  -10.7037   -0.4311 I         1 <0>        -0.0394
     20 H2          1.0042    1.8801    0.0026 H         1 <0>         0.0636
     21 H3         -0.5455    1.8639   -0.8728 H         1 <0>         0.0613
     22 H4         -0.5286    1.8543    0.9071 H         1 <0>         0.0639
     23 H5         -0.0065   -0.1406   -2.1317 H         1 <0>         0.1197
     24 H6          0.0269   -2.6011   -2.1509 H         1 <0>         0.1197
     25 H7          0.0473   -2.6246    2.1259 H         1 <0>         0.1178
     26 H8         -1.0019    0.2154    2.8292 H         1 <0>         0.0710
     27 H9          0.5541   -0.5358    3.2568 H         1 <0>         0.0648
     28 H10         0.5246    1.0086    2.3723 H         1 <0>         0.0696
     29 H11         0.0687   -4.6569    0.8164 H         1 <0>         0.3980
     30 H12         1.9182   -4.0225   -1.9537 H         1 <0>         0.0668
     31 H13         2.0980   -5.5607   -1.0764 H         1 <0>         0.0610
     32 H14         1.5002   -5.5570   -2.7530 H         1 <0>         0.0667
     33 H15         0.4377   -6.5577    0.7999 H         1 <0>         0.1288
     34 H16        -0.5118   -8.8048    1.1341 H         1 <0>         0.1312
     35 H17        -2.5435   -8.5013   -2.6047 H         1 <0>         0.1322
     36 H18        -1.6018   -6.2500   -2.9331 H         1 <0>         0.1336
@<TRIPOS>BOND
     1    1    2 1
     2    1   20 1
     3    1   21 1
     4    1   22 1
     5    2    7 ar
     6    2    3 ar
     7    3    4 ar
     8    3   23 1
     9    4    5 ar
    10    4   24 1
    11    5    6 ar
    12    5    9 1
    13    6    7 ar
    14    6   25 1
    15    7    8 1
    16    8   26 1
    17    8   27 1
    18    8   28 1
    19    9   10 1
    20    9   29 1
    21   10   11 1
    22   10   12 1
    23   10   13 1
    24   12   30 1
    25   12   31 1
    26   12   32 1
    27   13   18 ar
    28   13   14 ar
    29   14   15 ar
    30   14   33 1
    31   15   16 ar
    32   15   34 1
    33   16   17 ar
    34   16   19 1
    35   17   18 ar
    36   17   35 1
    37   18   36 1
@<TRIPOS>MOLECULE
ZINC40263837
   35    36     0     0     0
SMALL
USER_CHARGES

@<TRIPOS>ATOM
      1 C1         -0.0187    1.5258    0.0104 C.3       1 <0>        -0.1451
      2 C2          0.0021   -0.0041    0.0020 C.3       1 <0>        -0.0589
      3 C3          0.7182   -0.4975   -1.2568 C.3       1 <0>        -0.1452
      4 C4          0.7309   -0.5033    1.2229 C.ar      1 <0>        -0.0687
      5 C5          2.0501   -0.1479    1.4338 C.ar      1 <0>        -0.1105
      6 C6          2.7187   -0.6058    2.5537 C.ar      1 <0>        -0.1030
      7 C7          2.0680   -1.4188    3.4630 C.ar      1 <0>        -0.1212
      8 C8          0.7486   -1.7734    3.2525 C.ar      1 <0>        -0.1036
      9 C9          0.0787   -1.3120    2.1348 C.ar      1 <0>        -0.1157
     10 C10         2.7972   -1.9188    4.6833 C.3       1 <0>         0.1808
     11 H1          3.8723   -1.8524    4.5168 H         1 <0>         0.1215
     12 C11         2.4203   -1.0757    5.8742 C.ar      1 <0>        -0.0797
     13 C12         1.4093   -1.4889    6.7217 C.ar      1 <0>        -0.1079
     14 C13         1.0637   -0.7157    7.8140 C.ar      1 <0>        -0.0945
     15 C14         1.7289    0.4712    8.0594 C.ar      1 <0>        -0.1148
     16 C15         2.7397    0.8849    7.2125 C.ar      1 <0>        -0.0810
     17 C16         3.0897    0.1085    6.1226 C.ar      1 <0>        -0.0905
     18 I1          4.6277    0.7309    4.8435 I         1 <0>        -0.0381
     19 O1          2.4363   -3.2794    4.9297 O.3       1 <0>        -0.5410
     20 H2          1.0039    1.9031    0.0027 H         1 <0>         0.0573
     21 H3         -0.5459    1.8868   -0.8726 H         1 <0>         0.0593
     22 H4         -0.5289    1.8773    0.9072 H         1 <0>         0.0556
     23 H5         -1.0205   -0.3814    0.0098 H         1 <0>         0.0777
     24 H6          1.7408   -0.1202   -1.2645 H         1 <0>         0.0572
     25 H7          0.7330   -1.5874   -1.2628 H         1 <0>         0.0564
     26 H8          0.1910   -0.1364   -2.1398 H         1 <0>         0.0593
     27 H9          2.5584    0.4872    0.7235 H         1 <0>         0.1234
     28 H10         3.7495   -0.3288    2.7182 H         1 <0>         0.1299
     29 H11         0.2403   -2.4088    3.9627 H         1 <0>         0.1172
     30 H12        -0.9532   -1.5860    1.9723 H         1 <0>         0.1230
     31 H13         0.8893   -2.4159    6.5301 H         1 <0>         0.1295
     32 H14         0.2736   -1.0386    8.4757 H         1 <0>         0.1324
     33 H15         1.4584    1.0754    8.9128 H         1 <0>         0.1336
     34 H16         3.2589    1.8124    7.4039 H         1 <0>         0.1321
     35 H17         1.4917   -3.4135    5.0868 H         1 <0>         0.3733
@<TRIPOS>BOND
     1    1    2 1
     2    1   20 1
     3    1   21 1
     4    1   22 1
     5    2    3 1
     6    2    4 1
     7    2   23 1
     8    3   24 1
     9    3   25 1
    10    3   26 1
    11    4    9 ar
    12    4    5 ar
    13    5    6 ar
    14    5   27 1
    15    6    7 ar
    16    6   28 1
    17    7    8 ar
    18    7   10 1
    19    8    9 ar
    20    8   29 1
    21    9   30 1
    22   10   11 1
    23   10   12 1
    24   10   19 1
    25   12   17 ar
    26   12   13 ar
    27   13   14 ar
    28   13   31 1
    29   14   15 ar
    30   14   32 1
    31   15   16 ar
    32   15   33 1
    33   16   17 ar
    34   16   34 1
    35   17   18 1
    36   19   35 1
@<TRIPOS>MOLECULE
ZINC05695744
   38    41     0     0     0
SMALL
USER_CHARGES
2-(3-bromophenyl)vinylBLAHone
@<TRIPOS>ATOM
      1 C1          6.0761   -1.2361   -0.0593 C.ar      1 <0>        -0.1140
      2 C2          4.8803   -0.5490   -0.0402 C.ar      1 <0>        -0.0843
      3 C3          4.8812    0.8492   -0.0390 C.ar      1 <0>        -0.0766
      4 C4          6.0966    1.5407   -0.0469 C.ar      1 <0>        -0.0612
      5 C5          7.2847    0.8395   -0.0611 C.ar      1 <0>        -0.0944
      6 C6          7.2750   -0.5455   -0.0670 C.ar      1 <0>        -0.0751
      7 Br1         8.9301    1.7715   -0.0718 Br        1 <0>        -0.0406
      8 C7          3.6090    1.5897   -0.0234 C.2       1 <0>         0.0059
      9 C8          2.4391    0.9196   -0.0158 C.2       1 <0>        -0.1579
     10 C9          1.1741    1.6559   -0.0003 C.2       1 <0>         0.4463
     11 N1         -0.0111    0.9658    0.0074 N.am      1 <0>        -0.6384
     12 H1          0.0025   -0.0341    0.0062 H         1 <0>         0.4273
     13 C10        -1.1921    1.6111    0.0165 C.2       1 <0>         0.5578
     14 O1         -2.2381    0.9855    0.0178 O.2       1 <0>        -0.5221
     15 C11        -1.2025    3.0445    0.0293 C.2       1 <0>        -0.2520
     16 C12        -2.3578    3.9400    0.0452 C.2       1 <0>        -0.0489
     17 C13        -2.1053    5.2667    0.0494 C.2       1 <0>        -0.1705
     18 S1         -0.3377    5.3986    0.0322 S.3       1 <0>         0.1456
     19 C14         0.0582    3.6681    0.0201 C.2       1 <0>         0.1110
     20 N2          1.1881    2.9764    0.0058 N.2       1 <0>        -0.4899
     21 C15        -3.1071    6.3807    0.0644 C.3       1 <0>        -0.0369
     22 C16        -4.4816    5.8011   -0.2994 C.3       1 <0>        -0.1152
     23 C17        -4.7189    4.5383    0.5338 C.3       1 <0>        -0.1231
     24 C18        -3.7924    3.4193    0.0567 C.3       1 <0>        -0.0596
     25 H2          6.0766   -2.3160   -0.0637 H         1 <0>         0.1383
     26 H3          3.9455   -1.0897   -0.0297 H         1 <0>         0.1356
     27 H4          6.1053    2.6207   -0.0416 H         1 <0>         0.1413
     28 H5          8.2081   -1.0893   -0.0774 H         1 <0>         0.1372
     29 H6          3.6128    2.6696   -0.0180 H         1 <0>         0.1486
     30 H7          2.4353   -0.1604   -0.0212 H         1 <0>         0.1478
     31 H8         -3.1476    6.8247    1.0591 H         1 <0>         0.0861
     32 H9         -2.8234    7.1395   -0.6649 H         1 <0>         0.0844
     33 H10        -5.2573    6.5348   -0.0803 H         1 <0>         0.0761
     34 H11        -4.5038    5.5513   -1.3602 H         1 <0>         0.0693
     35 H12        -4.5165    4.7534    1.5831 H         1 <0>         0.0661
     36 H13        -5.7557    4.2206    0.4227 H         1 <0>         0.0718
     37 H14        -3.8671    2.5692    0.7347 H         1 <0>         0.0857
     38 H15        -4.0779    3.1128   -0.9496 H         1 <0>         0.0788
@<TRIPOS>BOND
     1    1    6 ar
     2    1    2 ar
     3    1   25 1
     4    2    3 ar
     5    2   26 1
     6    3    4 ar
     7    3    8 1
     8    4    5 ar
     9    4   27 1
    10    5    6 ar
    11    5    7 1
    12    6   28 1
    13    8    9 2
    14    8   29 1
    15    9   10 1
    16    9   30 1
    17   10   20 2
    18   10   11 1
    19   11   12 1
    20   11   13 am
    21   13   14 2
    22   13   15 1
    23   15   19 2
    24   15   16 1
    25   16   24 1
    26   16   17 2
    27   17   18 1
    28   17   21 1
    29   18   19 1
    30   19   20 1
    31   21   22 1
    32   21   31 1
    33   21   32 1
    34   22   23 1
    35   22   33 1
    36   22   34 1
    37   23   24 1
    38   23   35 1
    39   23   36 1
    40   24   37 1
    41   24   38 1
@<TRIPOS>MOLECULE
ZINC14548468
   33    36     0     0     0
SMALL
USER_CHARGES
(3aS,4S,9bS)-8-iodo-4-(2-thienyl)-3a,4,5,9b-tetrahydro-3H-cyclopenta[c]quinoline
@<TRIPOS>ATOM
      1 C1          2.4420   -6.5230    1.0184 C.2       1 <0>        -0.1591
      2 C2          2.7532   -5.4148    0.2532 C.2       1 <0>        -0.1382
      3 C3          2.2704   -4.2036    0.6237 C.2       1 <0>        -0.1631
      4 S1          1.3500   -4.6084    2.0989 S.3       1 <0>         0.0561
      5 C4          1.6633   -6.3659    2.1168 C.2       1 <0>        -0.1690
      6 C5          2.4656   -2.8622   -0.0350 C.3       1 <0>         0.2535
      7 H1          2.8016   -2.9938   -1.0635 H         1 <0>         0.0955
      8 C6          3.4711   -2.0353    0.7467 C.3       1 <0>        -0.1021
      9 H2          3.1163   -1.8260    1.7559 H         1 <0>         0.0960
     10 C7          4.9255   -2.5255    0.7499 C.3       1 <0>        -0.0851
     11 C8          5.6865   -1.1903    0.8930 C.2       1 <0>        -0.1624
     12 C9          4.9460   -0.1837    0.4447 C.2       1 <0>        -0.1493
     13 C10         3.6702   -0.7316   -0.0825 C.3       1 <0>        -0.0250
     14 H3          3.8333   -1.0243   -1.1198 H         1 <0>         0.0848
     15 C11         2.4075    0.0361   -0.0350 C.ar      1 <0>        -0.1364
     16 C12         2.3784    1.4138   -0.0186 C.ar      1 <0>        -0.0318
     17 C13         1.1702    2.0865    0.0021 C.ar      1 <0>        -0.1503
     18 C14        -0.0166    1.3754    0.0096 C.ar      1 <0>        -0.0381
     19 C15         0.0021   -0.0041    0.0020 C.ar      1 <0>        -0.1891
     20 C16         1.2109   -0.6894   -0.0177 C.ar      1 <0>         0.2392
     21 N1          1.2046   -2.0897   -0.0043 N.pl3     1 <0>        -0.7422
     22 I1          1.1371    4.1812    0.0212 I         1 <0>        -0.0521
     23 H4          2.8141   -7.4995    0.7455 H         1 <0>         0.1363
     24 H5          3.3720   -5.5124   -0.6265 H         1 <0>         0.1348
     25 H6          1.3239   -7.1101    2.8220 H         1 <0>         0.1871
     26 H7          5.1119   -3.1898    1.5938 H         1 <0>         0.0772
     27 H8          5.1751   -3.0138   -0.1920 H         1 <0>         0.0817
     28 H9          6.6766   -1.0921    1.3131 H         1 <0>         0.1307
     29 H10         5.2251    0.8595    0.4602 H         1 <0>         0.1331
     30 H11         3.3037    1.9708   -0.0215 H         1 <0>         0.1274
     31 H12        -0.9599    1.9014    0.0169 H         1 <0>         0.1282
     32 H13        -0.9273   -0.5541    0.0118 H         1 <0>         0.1282
     33 H14         0.3577   -2.5617    0.0259 H         1 <0>         0.4034
@<TRIPOS>BOND
     1    1    5 2
     2    1    2 1
     3    1   23 1
     4    2    3 2
     5    2   24 1
     6    3    4 1
     7    3    6 1
     8    4    5 1
     9    5   25 1
    10    6    7 1
    11    6   21 1
    12    6    8 1
    13    8    9 1
    14    8   13 1
    15    8   10 1
    16   10   11 1
    17   10   26 1
    18   10   27 1
    19   11   12 2
    20   11   28 1
    21   12   13 1
    22   12   29 1
    23   13   14 1
    24   13   15 1
    25   15   20 ar
    26   15   16 ar
    27   16   17 ar
    28   16   30 1
    29   17   18 ar
    30   17   22 1
    31   18   19 ar
    32   18   31 1
    33   19   20 ar
    34   19   32 1
    35   20   21 1
    36   21   33 1
@<TRIPOS>MOLECULE
ZINC37105282
   32    34     0     0     0
SMALL
USER_CHARGES

@<TRIPOS>ATOM
      1 C1         -0.0166    1.3736    0.0096 C.ar      1 <0>        -0.1213
      2 C2          1.1711    2.0829    0.0021 C.ar      1 <0>        -0.0967
      3 C3          2.3686    1.4014   -0.0042 C.ar      1 <0>        -0.1025
      4 C4          2.3905    0.0063   -0.0101 C.ar      1 <0>        -0.0649
      5 C5          1.2055   -0.7054   -0.0172 C.ar      1 <0>        -0.1126
      6 C6          0.0021   -0.0041    0.0020 C.ar      1 <0>        -0.0990
      7 C7          1.1101   -2.2016   -0.0678 C.3       1 <0>         0.1900
      8 H1          0.9524   -2.5058   -1.1025 H         1 <0>         0.0960
      9 C8          2.3432   -2.9106    0.4638 C.3       1 <0>        -0.1319
     10 C9          3.5555   -2.5220   -0.3951 C.3       1 <0>        -0.1013
     11 S1          3.9627   -0.7961    0.0017 S.3       1 <0>        -0.1195
     12 N1         -0.0475   -2.6239    0.7246 N.pl3     1 <0>        -0.7278
     13 C10        -1.3197   -2.6469    0.1460 C.ar      1 <0>         0.2449
     14 C11        -1.4872   -2.2753   -1.1816 C.ar      1 <0>        -0.1864
     15 C12        -2.7454   -2.2994   -1.7508 C.ar      1 <0>        -0.0288
     16 C13        -3.8388   -2.6929   -1.0001 C.ar      1 <0>        -0.1478
     17 C14        -3.6762   -3.0634    0.3226 C.ar      1 <0>        -0.0249
     18 C15        -2.4189   -3.0473    0.8964 C.ar      1 <0>        -0.1115
     19 Cl1        -2.2141   -3.5193    2.5544 Cl        1 <0>        -0.0594
     20 I1         -5.7451   -2.7270   -1.8684 I         1 <0>        -0.0345
     21 H2         -0.9594    1.9003    0.0259 H         1 <0>         0.1255
     22 H3          1.1598    3.1628    0.0008 H         1 <0>         0.1302
     23 H4          3.2979    1.9517   -0.0050 H         1 <0>         0.1291
     24 H5         -0.9306   -0.5485    0.0107 H         1 <0>         0.1317
     25 H6          2.5182   -2.6119    1.4974 H         1 <0>         0.0873
     26 H7          2.1929   -3.9891    0.4154 H         1 <0>         0.0950
     27 H8          4.4012   -3.1673   -0.1573 H         1 <0>         0.1211
     28 H9          3.3053   -2.6108   -1.4523 H         1 <0>         0.0963
     29 H10         0.0689   -2.8876    1.6508 H         1 <0>         0.4084
     30 H11        -0.6344   -1.9672   -1.7683 H         1 <0>         0.1395
     31 H12        -2.8758   -2.0104   -2.7832 H         1 <0>         0.1360
     32 H13        -4.5318   -3.3694    0.9063 H         1 <0>         0.1398
@<TRIPOS>BOND
     1    1    6 ar
     2    1    2 ar
     3    1   21 1
     4    2    3 ar
     5    2   22 1
     6    3    4 ar
     7    3   23 1
     8    4   11 1
     9    4    5 ar
    10    5    6 ar
    11    5    7 1
    12    6   24 1
    13    7    8 1
    14    7    9 1
    15    7   12 1
    16    9   10 1
    17    9   25 1
    18    9   26 1
    19   10   11 1
    20   10   27 1
    21   10   28 1
    22   12   13 1
    23   12   29 1
    24   13   18 ar
    25   13   14 ar
    26   14   15 ar
    27   14   30 1
    28   15   16 ar
    29   15   31 1
    30   16   17 ar
    31   16   20 1
    32   17   18 ar
    33   17   32 1
    34   18   19 1
@<TRIPOS>MOLECULE
ZINC40260267
   26    27     0     0     0
SMALL
USER_CHARGES

@<TRIPOS>ATOM
      1 C1         -0.0167    1.3782    0.0096 C.ar      1 <0>        -0.1006
      2 C2          1.1708    2.0857    0.0021 C.ar      1 <0>        -0.0804
      3 C3          2.3776    1.4106   -0.0131 C.ar      1 <0>        -0.0962
      4 C4          2.3961    0.0278   -0.0207 C.ar      1 <0>        -0.0797
      5 C5          1.2083   -0.6792   -0.0132 C.ar      1 <0>        -0.1049
      6 C6          0.0021   -0.0041    0.0020 C.ar      1 <0>        -0.0982
      7 C7         -1.2927   -0.7751    0.0108 C.3       1 <0>         0.1910
      8 H1         -2.0954   -0.1332    0.3737 H         1 <0>         0.1253
      9 C8         -1.6120   -1.2366   -1.3879 C.ar      1 <0>        -0.0982
     10 C9         -1.0725   -2.4163   -1.8662 C.ar      1 <0>        -0.0942
     11 C10        -1.3641   -2.8405   -3.1488 C.ar      1 <0>        -0.0920
     12 C11        -2.1967   -2.0847   -3.9548 C.ar      1 <0>        -0.0299
     13 C12        -2.7374   -0.9037   -3.4756 C.ar      1 <0>        -0.0272
     14 C13        -2.4485   -0.4832   -2.1896 C.ar      1 <0>        -0.0861
     15 Cl1        -3.7819    0.0462   -4.4858 Cl        1 <0>        -0.0415
     16 Cl2        -2.5630   -2.6167   -5.5662 Cl        1 <0>        -0.0426
     17 O1         -1.1654   -1.9102    0.8695 O.3       1 <0>        -0.5395
     18 I1          4.1776    2.4824   -0.0252 I         1 <0>        -0.0370
     19 H2         -0.9592    1.9053    0.0260 H         1 <0>         0.1346
     20 H3          1.1560    3.1655    0.0077 H         1 <0>         0.1332
     21 H4          3.3384   -0.4997   -0.0329 H         1 <0>         0.1327
     22 H5          1.2227   -1.7591   -0.0191 H         1 <0>         0.1280
     23 H6         -0.4224   -3.0066   -1.2373 H         1 <0>         0.1362
     24 H7         -0.9418   -3.7617   -3.5221 H         1 <0>         0.1467
     25 H8         -2.8731    0.4359   -1.8138 H         1 <0>         0.1452
     26 H9         -0.4681   -2.5263    0.6062 H         1 <0>         0.3752
@<TRIPOS>BOND
     1    1    6 ar
     2    1    2 ar
     3    1   19 1
     4    2    3 ar
     5    2   20 1
     6    3    4 ar
     7    3   18 1
     8    4    5 ar
     9    4   21 1
    10    5    6 ar
    11    5   22 1
    12    6    7 1
    13    7    8 1
    14    7    9 1
    15    7   17 1
    16    9   14 ar
    17    9   10 ar
    18   10   11 ar
    19   10   23 1
    20   11   12 ar
    21   11   24 1
    22   12   13 ar
    23   12   16 1
    24   13   14 ar
    25   13   15 1
    26   14   25 1
    27   17   26 1
@<TRIPOS>MOLECULE
ZINC00826463
   31    33     0     0     0
SMALL
USER_CHARGES

@<TRIPOS>ATOM
      1 C1         -0.0184    1.5028    0.0103 C.3       1 <0>        -0.1158
      2 C2          0.0021   -0.0041    0.0020 C.ar      1 <0>        -0.0553
      3 C3          0.0059   -0.6983   -1.1998 C.ar      1 <0>        -0.1110
      4 C4          0.0241   -2.0574   -1.2395 C.ar      1 <0>        -0.0550
      5 C5          0.0400   -2.8178   -0.0455 C.ar      1 <0>         0.0781
      6 C6          0.0356   -2.0813    1.1632 C.ar      1 <0>        -0.1444
      7 C7          0.0229   -0.7087    1.1917 C.ar      1 <0>        -0.0703
      8 S1          0.0594   -3.3654    2.3906 S.3       1 <0>         0.0671
      9 C8          0.0731   -4.7527    1.2637 C.2       1 <0>         0.2953
     10 N1          0.0592   -4.1582    0.0867 N.2       1 <0>        -0.5326
     11 N2          0.0936   -6.0810    1.5474 N.2       1 <0>        -0.4211
     12 C9          0.1009   -6.9568    0.5766 C.2       1 <0>         0.2537
     13 C10         0.1230   -8.3925    0.8833 C.ar      1 <0>        -0.1016
     14 C11         0.1366   -9.3340   -0.1528 C.ar      1 <0>        -0.0363
     15 C12         0.1573  -10.6800    0.1427 C.ar      1 <0>        -0.0522
     16 C13         0.1641  -11.1068    1.4622 C.ar      1 <0>        -0.0380
     17 C14         0.1503  -10.1886    2.4947 C.ar      1 <0>        -0.1263
     18 C15         0.1363   -8.8298    2.2173 C.ar      1 <0>         0.2008
     19 O1          0.1289   -7.9271    3.2307 O.3       1 <0>        -0.4564
     20 Br1         0.1586  -10.7856    4.2890 Br        1 <0>        -0.0121
     21 Cl1         0.1743  -11.8466   -1.1427 Cl        1 <0>        -0.0435
     22 H1          1.0042    1.8801    0.0026 H         1 <0>         0.0783
     23 H2         -0.5455    1.8639   -0.8728 H         1 <0>         0.0738
     24 H3         -0.5286    1.8543    0.9071 H         1 <0>         0.0721
     25 H4         -0.0063   -0.1449   -2.1272 H         1 <0>         0.1358
     26 H5          0.0262   -2.5630   -2.1938 H         1 <0>         0.1338
     27 H6          0.0248   -0.1836    2.1355 H         1 <0>         0.1360
     28 H7          0.0907   -6.6242   -0.4508 H         1 <0>         0.1372
     29 H8          0.1307   -9.0061   -1.1818 H         1 <0>         0.1551
     30 H9          0.1800  -12.1636    1.6842 H         1 <0>         0.1531
     31 H10        -0.7565   -7.6780    3.5291 H         1 <0>         0.4018
@<TRIPOS>BOND
     1    1    2 1
     2    1   22 1
     3    1   23 1
     4    1   24 1
     5    2    7 ar
     6    2    3 ar
     7    3    4 ar
     8    3   25 1
     9    4    5 ar
    10    4   26 1
    11    5   10 1
    12    5    6 ar
    13    6    7 ar
    14    6    8 1
    15    7   27 1
    16    8    9 1
    17    9   10 2
    18    9   11 1
    19   11   12 2
    20   12   13 1
    21   12   28 1
    22   13   18 ar
    23   13   14 ar
    24   14   15 ar
    25   14   29 1
    26   15   16 ar
    27   15   21 1
    28   16   17 ar
    29   16   30 1
    30   17   18 ar
    31   17   20 1
    32   18   19 1
    33   19   31 1
@<TRIPOS>MOLECULE
ZINC03002398
   47    50     0     0     0
SMALL
USER_CHARGES
N-(3-benzothiazol-2-yl-2-methyl-phenyl)-3,4-dimethyl-benzamide
@<TRIPOS>ATOM
      1 C1          5.7967   -1.4681    0.4968 C.3       1 <0>        -0.1253
      2 C2          4.5459   -0.6276    0.4991 C.ar      1 <0>        -0.0552
      3 C3          3.3553   -1.1631    0.0401 C.ar      1 <0>        -0.1233
      4 C4          2.2057   -0.4009    0.0440 C.ar      1 <0>        -0.0871
      5 C5          2.2473    0.9168    0.5034 C.ar      1 <0>        -0.1417
      6 C6          3.4513    1.4507    0.9654 C.ar      1 <0>        -0.0513
      7 C7          4.5928    0.6757    0.9605 C.ar      1 <0>        -0.0937
      8 C8          5.8939    1.2506    1.4585 C.3       1 <0>        -0.1203
      9 C9          1.0203    1.7410    0.5061 C.2       1 <0>         0.5638
     10 O1          1.0584    2.8865    0.9114 O.2       1 <0>        -0.5146
     11 N1         -0.1408    1.2226    0.0593 N.am      1 <0>        -0.6676
     12 C10        -1.3181    1.9738    0.1374 C.ar      1 <0>         0.1433
     13 C11        -1.2753    3.3527   -0.0329 C.ar      1 <0>        -0.0925
     14 C12        -2.4360    4.0991    0.0424 C.ar      1 <0>        -0.1043
     15 C13        -3.6453    3.4802    0.2872 C.ar      1 <0>        -0.0918
     16 C14        -3.6987    2.0964    0.4601 C.ar      1 <0>        -0.0117
     17 C15        -2.5284    1.3425    0.3789 C.ar      1 <0>        -0.0597
     18 C16        -2.5785   -0.1530    0.5578 C.3       1 <0>        -0.1107
     19 C17        -4.9932    1.4309    0.7220 C.2       1 <0>         0.2086
     20 N2         -5.2972    0.5567    1.6559 N.2       1 <0>        -0.4874
     21 C18        -6.5296    0.0269    1.7791 C.ar      1 <0>         0.0728
     22 C19        -6.9855   -0.9153    2.7321 C.ar      1 <0>        -0.0573
     23 C20        -8.2727   -1.3525    2.7189 C.ar      1 <0>        -0.1126
     24 C21        -9.1879   -0.8975    1.7795 C.ar      1 <0>        -0.0900
     25 C22        -8.7840    0.0235    0.8311 C.ar      1 <0>        -0.0693
     26 C23        -7.4856    0.4715    0.8351 C.ar      1 <0>        -0.1397
     27 S1         -6.5450    1.6160   -0.1455 S.3       1 <0>        -0.0044
     28 H1          5.8796   -1.9988    1.4452 H         1 <0>         0.0772
     29 H2          5.7489   -2.1885   -0.3198 H         1 <0>         0.0703
     30 H3          6.6665   -0.8248    0.3632 H         1 <0>         0.0754
     31 H4          3.3253   -2.1816   -0.3182 H         1 <0>         0.1312
     32 H5          1.2763   -0.8213   -0.3107 H         1 <0>         0.1244
     33 H6          3.4892    2.4679    1.3262 H         1 <0>         0.1381
     34 H7          5.9890    1.0613    2.5277 H         1 <0>         0.0746
     35 H8          6.7241    0.7809    0.9311 H         1 <0>         0.0739
     36 H9          5.9094    2.3252    1.2769 H         1 <0>         0.0699
     37 H10        -0.1592    0.3300   -0.3200 H         1 <0>         0.4104
     38 H11        -0.3321    3.8424   -0.2251 H         1 <0>         0.1473
     39 H12        -2.3968    5.1701   -0.0911 H         1 <0>         0.1380
     40 H13        -4.5503    4.0668    0.3446 H         1 <0>         0.1323
     41 H14        -2.3624   -0.4021    1.5967 H         1 <0>         0.0823
     42 H15        -3.5720   -0.5171    0.2959 H         1 <0>         0.0710
     43 H16        -1.8375   -0.6214   -0.0899 H         1 <0>         0.0616
     44 H17        -6.3021   -1.2921    3.4787 H         1 <0>         0.1336
     45 H18        -8.5916   -2.0720    3.4585 H         1 <0>         0.1356
     46 H19       -10.2053   -1.2597    1.7893 H         1 <0>         0.1406
     47 H20        -9.4835    0.3879    0.0934 H         1 <0>         0.1353
@<TRIPOS>BOND
     1    1    2 1
     2    1   28 1
     3    1   29 1
     4    1   30 1
     5    2    7 ar
     6    2    3 ar
     7    3    4 ar
     8    3   31 1
     9    4    5 ar
    10    4   32 1
    11    5    6 ar
    12    5    9 1
    13    6    7 ar
    14    6   33 1
    15    7    8 1
    16    8   34 1
    17    8   35 1
    18    8   36 1
    19    9   10 2
    20    9   11 am
    21   11   12 1
    22   11   37 1
    23   12   17 ar
    24   12   13 ar
    25   13   14 ar
    26   13   38 1
    27   14   15 ar
    28   14   39 1
    29   15   16 ar
    30   15   40 1
    31   16   17 ar
    32   16   19 1
    33   17   18 1
    34   18   41 1
    35   18   42 1
    36   18   43 1
    37   19   27 1
    38   19   20 2
    39   20   21 1
    40   21   26 ar
    41   21   22 ar
    42   22   23 ar
    43   22   44 1
    44   23   24 ar
    45   23   45 1
    46   24   25 ar
    47   24   46 1
    48   25   26 ar
    49   25   47 1
    50   26   27 1
@<TRIPOS>MOLECULE
ZINC05245168
   44    47     0     0     0
SMALL
USER_CHARGES
N-[4-oxo-3-(p-tolyl)thiochromen-2-yl]-2-(2-thienyl)acetamide
@<TRIPOS>ATOM
      1 C1         -1.1857    8.9021    0.0599 C.3       1 <0>        -0.1172
      2 C2         -0.0335    7.9309    0.0443 C.ar      1 <0>        -0.0821
      3 C3          0.8298    7.8689    1.1235 C.ar      1 <0>        -0.1175
      4 C4          1.8871    6.9824    1.1147 C.ar      1 <0>        -0.0805
      5 C5          2.0843    6.1475    0.0152 C.ar      1 <0>        -0.0276
      6 C6          1.2134    6.2180   -1.0719 C.ar      1 <0>        -0.1167
      7 C7          0.1568    7.1053   -1.0493 C.ar      1 <0>        -0.1189
      8 C8          3.2177    5.1938   -0.0008 C.2       1 <0>        -0.2447
      9 C9          4.5029    5.7202   -0.0098 C.2       1 <0>         0.4171
     10 O1          4.5626    6.9395   -0.0039 O.2       1 <0>        -0.4721
     11 C10         5.7915    5.0386   -0.0256 C.ar      1 <0>        -0.1574
     12 C11         6.9880    5.7715   -0.0330 C.ar      1 <0>        -0.0420
     13 C12         8.1879    5.1222   -0.0470 C.ar      1 <0>        -0.1299
     14 C13         8.2600    3.7362   -0.0546 C.ar      1 <0>        -0.0698
     15 C14         7.1001    2.9844   -0.0481 C.ar      1 <0>        -0.0937
     16 C15         5.8828    3.6312   -0.0335 C.ar      1 <0>        -0.1104
     17 S1          4.3410    2.7540   -0.0170 S.3       1 <0>         0.1689
     18 C16         2.9174    3.8300   -0.0052 C.2       1 <0>         0.1913
     19 N1          1.6237    3.3527    0.0046 N.am      1 <0>        -0.6238
     20 C17         1.3954    2.0244   -0.0004 C.2       1 <0>         0.5053
     21 O2          2.3277    1.2491   -0.0135 O.2       1 <0>        -0.4602
     22 C18        -0.0184    1.5028    0.0103 C.3       1 <0>        -0.0471
     23 C19         0.0021   -0.0041    0.0020 C.2       1 <0>        -0.1495
     24 C20         0.0293   -0.8632    1.0501 C.2       1 <0>        -0.1319
     25 C21         0.0404   -2.2230    0.8022 C.2       1 <0>        -0.1597
     26 C22         0.0345   -2.6570   -0.4819 C.2       1 <0>        -0.1639
     27 S2          0.0047   -1.1208   -1.3909 S.3       1 <0>         0.0552
     28 H1         -0.8672    9.8507   -0.3724 H         1 <0>         0.0718
     29 H2         -2.0114    8.4956   -0.5242 H         1 <0>         0.0670
     30 H3         -1.5120    9.0624    1.0875 H         1 <0>         0.0670
     31 H4          0.6761    8.5160    1.9745 H         1 <0>         0.1238
     32 H5          2.5609    6.9354    1.9575 H         1 <0>         0.1198
     33 H6          1.3636    5.5772   -1.9281 H         1 <0>         0.1200
     34 H7         -0.5205    7.1582   -1.8889 H         1 <0>         0.1244
     35 H8          6.9592    6.8511   -0.0273 H         1 <0>         0.1398
     36 H9          9.1010    5.6990   -0.0519 H         1 <0>         0.1331
     37 H10         9.2220    3.2453   -0.0654 H         1 <0>         0.1389
     38 H11         7.1468    1.9054   -0.0536 H         1 <0>         0.1407
     39 H12         0.8780    3.9729    0.0150 H         1 <0>         0.4277
     40 H13        -0.5455    1.8639   -0.8728 H         1 <0>         0.1211
     41 H14        -0.5286    1.8543    0.9071 H         1 <0>         0.1279
     42 H15         0.0392   -0.4908    2.0639 H         1 <0>         0.1326
     43 H16         0.0581   -2.9290    1.6193 H         1 <0>         0.1359
     44 H17         0.0454   -3.6695   -0.8577 H         1 <0>         0.1875
@<TRIPOS>BOND
     1    1    2 1
     2    1   28 1
     3    1   29 1
     4    1   30 1
     5    2    7 ar
     6    2    3 ar
     7    3    4 ar
     8    3   31 1
     9    4    5 ar
    10    4   32 1
    11    5    6 ar
    12    5    8 1
    13    6    7 ar
    14    6   33 1
    15    7   34 1
    16    8   18 2
    17    8    9 1
    18    9   10 2
    19    9   11 1
    20   11   16 ar
    21   11   12 ar
    22   12   13 ar
    23   12   35 1
    24   13   14 ar
    25   13   36 1
    26   14   15 ar
    27   14   37 1
    28   15   16 ar
    29   15   38 1
    30   16   17 1
    31   17   18 1
    32   18   19 1
    33   19   20 am
    34   19   39 1
    35   20   21 2
    36   20   22 1
    37   22   23 1
    38   22   40 1
    39   22   41 1
    40   23   27 1
    41   23   24 2
    42   24   25 1
    43   24   42 1
    44   25   26 2
    45   25   43 1
    46   26   27 1
    47   26   44 1
@<TRIPOS>MOLECULE
ZINC10700350
   47    50     0     0     0
SMALL
USER_CHARGES
2-(2,5-dimethylphenyl)-N-[4-(2-naphthyl)thiazol-2-yl]-acetamide
@<TRIPOS>ATOM
      1 C1          3.0015  -11.5063    2.5692 C.3       1 <0>        -0.1155
      2 C2          3.2431  -10.7508    1.2879 C.ar      1 <0>        -0.0900
      3 C3          3.0112  -11.3630    0.0701 C.ar      1 <0>        -0.1101
      4 C4          3.2328  -10.6701   -1.1051 C.ar      1 <0>        -0.1150
      5 C5          3.6805   -9.3627   -1.0628 C.ar      1 <0>        -0.0708
      6 C6          3.9174   -8.7524    0.1545 C.ar      1 <0>        -0.0758
      7 C7          3.6961   -9.4457    1.3301 C.ar      1 <0>        -0.1002
      8 C8          4.4109   -7.3293    0.2005 C.3       1 <0>        -0.0917
      9 C9          3.2375   -6.3876    0.1135 C.2       1 <0>         0.5143
     10 O1          2.1114   -6.8287    0.0230 O.2       1 <0>        -0.4812
     11 N1          3.4396   -5.0553    0.1362 N.am      1 <0>        -0.6120
     12 C10         2.3577   -4.1871    0.0560 C.2       1 <0>         0.3166
     13 N2          2.3443   -2.8673    0.0566 N.2       1 <0>        -0.5326
     14 C11         1.2081   -2.1909   -0.0227 C.2       1 <0>         0.1179
     15 C12         0.0268   -2.8731   -0.1185 C.2       1 <0>        -0.2398
     16 S1          0.6153   -4.5612   -0.0818 S.3       1 <0>         0.1202
     17 C13         1.2175   -0.7083   -0.0138 C.ar      1 <0>        -0.0250
     18 C14         0.0021   -0.0041    0.0020 C.ar      1 <0>        -0.0998
     19 C15        -0.0163    1.3536    0.0095 C.ar      1 <0>        -0.1054
     20 C16         1.1923    2.0732    0.0018 C.ar      1 <0>        -0.0483
     21 C17         1.1997    3.4782    0.0101 C.ar      1 <0>        -0.1081
     22 C18         2.3855    4.1467    0.0024 C.ar      1 <0>        -0.1140
     23 C19         3.5974    3.4587   -0.0132 C.ar      1 <0>        -0.1179
     24 C20         3.6301    2.0982   -0.0213 C.ar      1 <0>        -0.1022
     25 C21         2.4251    1.3731   -0.0137 C.ar      1 <0>        -0.0548
     26 C22         2.4225   -0.0303   -0.0217 C.ar      1 <0>        -0.0685
     27 C23         3.9158   -8.6050   -2.3440 C.3       1 <0>        -0.1176
     28 H1          1.9724  -11.3520    2.8935 H         1 <0>         0.0708
     29 H2          3.1742  -12.5695    2.4022 H         1 <0>         0.0669
     30 H3          3.6831  -11.1439    3.3387 H         1 <0>         0.0660
     31 H4          2.6572  -12.3828    0.0371 H         1 <0>         0.1228
     32 H5          3.0520  -11.1485   -2.0563 H         1 <0>         0.1236
     33 H6          3.8770   -8.9673    2.2813 H         1 <0>         0.1211
     34 H7          5.0832   -7.1505   -0.6386 H         1 <0>         0.1151
     35 H8          4.9442   -7.1597    1.1359 H         1 <0>         0.1140
     36 H9          4.3402   -4.7025    0.2086 H         1 <0>         0.4275
     37 H10        -0.9825   -2.4965   -0.1953 H         1 <0>         0.1993
     38 H11        -0.9299   -0.5497    0.0080 H         1 <0>         0.1265
     39 H12        -0.9588    1.8809    0.0168 H         1 <0>         0.1310
     40 H13         0.2687    4.0254    0.0226 H         1 <0>         0.1276
     41 H14         2.3872    5.2267    0.0089 H         1 <0>         0.1236
     42 H15         4.5241    4.0133   -0.0194 H         1 <0>         0.1238
     43 H16         4.5765    1.5781   -0.0330 H         1 <0>         0.1274
     44 H17         3.3543   -0.5764   -0.0335 H         1 <0>         0.1371
     45 H18         4.9434   -8.7583   -2.6733 H         1 <0>         0.0734
     46 H19         3.2307   -8.9664   -3.1109 H         1 <0>         0.0700
     47 H20         3.7433   -7.5421   -2.1744 H         1 <0>         0.0596
@<TRIPOS>BOND
     1    1    2 1
     2    1   28 1
     3    1   29 1
     4    1   30 1
     5    2    7 ar
     6    2    3 ar
     7    3    4 ar
     8    3   31 1
     9    4    5 ar
    10    4   32 1
    11    5    6 ar
    12    5   27 1
    13    6    7 ar
    14    6    8 1
    15    7   33 1
    16    8    9 1
    17    8   34 1
    18    8   35 1
    19    9   10 2
    20    9   11 am
    21   11   12 1
    22   11   36 1
    23   12   16 1
    24   12   13 2
    25   13   14 1
    26   14   15 2
    27   14   17 1
    28   15   16 1
    29   15   37 1
    30   17   26 ar
    31   17   18 ar
    32   18   19 ar
    33   18   38 1
    34   19   20 ar
    35   19   39 1
    36   20   25 ar
    37   20   21 ar
    38   21   22 ar
    39   21   40 1
    40   22   23 ar
    41   22   41 1
    42   23   24 ar
    43   23   42 1
    44   24   25 ar
    45   24   43 1
    46   25   26 ar
    47   26   44 1
    48   27   45 1
    49   27   46 1
    50   27   47 1
@<TRIPOS>MOLECULE
ZINC23458755
   51    55     0     0     0
SMALL
USER_CHARGES
N-[(1S)-indan-1-yl]-6,7-dimethyl-2-(2-thienyl)quinoline-4-carboxamide
@<TRIPOS>ATOM
      1 C1          4.8077   -2.9140   -0.1170 C.3       1 <0>        -0.1192
      2 C2          3.5254   -2.1229   -0.0857 C.ar      1 <0>        -0.0743
      3 C3          3.5752   -0.7598   -0.0658 C.ar      1 <0>        -0.0992
      4 C4          2.3856   -0.0254   -0.0362 C.ar      1 <0>        -0.0652
      5 C5          2.3916    1.4385   -0.0136 C.ar      1 <0>        -0.0654
      6 C6          1.1638    2.0805    0.0166 C.ar      1 <0>        -0.1233
      7 C7         -0.0156    1.3145    0.0231 C.ar      1 <0>         0.2377
      8 N1          0.0021   -0.0041    0.0020 N.ar      1 <0>        -0.4447
      9 C8          1.1396   -0.7013   -0.0271 C.ar      1 <0>         0.1330
     10 C9          1.1279   -2.1078   -0.0487 C.ar      1 <0>        -0.0936
     11 C10         2.3045   -2.7924   -0.0769 C.ar      1 <0>        -0.0606
     12 C11         2.2850   -4.2991   -0.0989 C.3       1 <0>        -0.1201
     13 C12        -1.3166    2.0095    0.0485 C.2       1 <0>        -0.1298
     14 C13        -2.5805    1.4775    0.0539 C.2       1 <0>        -0.1045
     15 C14        -3.6577    2.3327    0.0793 C.2       1 <0>        -0.1623
     16 C15        -3.4384    3.6741    0.0982 C.2       1 <0>        -0.1580
     17 S1         -1.6554    3.7621    0.0879 S.3       1 <0>         0.0681
     18 C16         3.6583    2.2022   -0.0221 C.2       1 <0>         0.5661
     19 O1          4.7210    1.6175    0.0559 O.2       1 <0>        -0.5220
     20 N2          3.6341    3.5464   -0.1164 N.am      1 <0>        -0.7276
     21 C17         4.8887    4.3028   -0.1248 C.3       1 <0>         0.1836
     22 H1          5.6012    3.6608   -0.6635 H         1 <0>         0.1074
     23 C18         4.6761    5.6855   -0.7770 C.3       1 <0>        -0.1225
     24 C19         5.6299    6.5859    0.0366 C.3       1 <0>        -0.0782
     25 C20         5.7599    5.9093    1.3844 C.ar      1 <0>        -0.0880
     26 C21         5.3341    4.5972    1.2916 C.ar      1 <0>        -0.1118
     27 C22         5.3648    3.7820    2.4104 C.ar      1 <0>        -0.0863
     28 C23         5.8189    4.2758    3.6181 C.ar      1 <0>        -0.1230
     29 C24         6.2444    5.5874    3.7108 C.ar      1 <0>        -0.1118
     30 C25         6.2149    6.4022    2.5955 C.ar      1 <0>        -0.1097
     31 H2          5.6643   -2.2239   -0.1199 H         1 <0>         0.0703
     32 H3          4.8336   -3.5345   -1.0249 H         1 <0>         0.0741
     33 H4          4.8611   -3.5610    0.7710 H         1 <0>         0.0742
     34 H5          4.5277   -0.2509   -0.0725 H         1 <0>         0.1657
     35 H6          1.1132    3.1591    0.0341 H         1 <0>         0.1392
     36 H7          0.1895   -2.6424   -0.0425 H         1 <0>         0.1394
     37 H8          1.2434   -4.6525   -0.0882 H         1 <0>         0.0694
     38 H9          2.8125   -4.6856    0.7857 H         1 <0>         0.0758
     39 H10         2.7849   -4.6590   -1.0102 H         1 <0>         0.0757
     40 H11        -2.7274    0.4077    0.0382 H         1 <0>         0.1440
     41 H12        -4.6650    1.9432    0.0838 H         1 <0>         0.1404
     42 H13        -4.1578    4.4794    0.1186 H         1 <0>         0.1916
     43 H14         2.6723    4.0756   -0.1871 H         1 <0>         0.4186
     44 H15         4.9427    5.6330   -1.8429 H         1 <0>         0.0876
     45 H16         3.6209    5.9797   -0.6771 H         1 <0>         0.0818
     46 H17         6.5998    6.6520   -0.4781 H         1 <0>         0.0873
     47 H18         5.1946    7.5919    0.1292 H         1 <0>         0.0821
     48 H19         5.0324    2.7570    2.3387 H         1 <0>         0.1176
     49 H20         5.8413    3.6374    4.4889 H         1 <0>         0.1235
     50 H21         6.5993    5.9752    4.6542 H         1 <0>         0.1250
     51 H22         6.5476    7.4271    2.6687 H         1 <0>         0.1219
@<TRIPOS>BOND
     1    1    2 1
     2    1   31 1
     3    1   32 1
     4    1   33 1
     5    2   11 ar
     6    2    3 ar
     7    3    4 ar
     8    3   34 1
     9    4    9 ar
    10    4    5 ar
    11    5    6 ar
    12    5   18 1
    13    6    7 ar
    14    6   35 1
    15    7    8 ar
    16    7   13 1
    17    8    9 ar
    18    9   10 ar
    19   10   11 ar
    20   10   36 1
    21   11   12 1
    22   12   37 1
    23   12   38 1
    24   12   39 1
    25   13   17 1
    26   13   14 2
    27   14   15 1
    28   14   40 1
    29   15   16 2
    30   15   41 1
    31   16   17 1
    32   16   42 1
    33   18   19 2
    34   18   20 am
    35   20   21 1
    36   20   43 1
    37   21   22 1
    38   21   26 1
    39   21   23 1
    40   23   24 1
    41   23   44 1
    42   23   45 1
    43   24   25 1
    44   24   46 1
    45   24   47 1
    46   25   30 ar
    47   25   26 ar
    48   26   27 ar
    49   27   28 ar
    50   27   48 1
    51   28   29 ar
    52   28   49 1
    53   29   30 ar
    54   29   50 1
    55   30   51 1
@<TRIPOS>MOLECULE
ZINC05910255
   36    38     0     0     0
SMALL
USER_CHARGES

@<TRIPOS>ATOM
      1 C1         -0.0184    1.5028    0.0103 C.3       1 <0>        -0.1459
      2 C2          0.0021   -0.0041    0.0020 C.2       1 <0>         0.1861
      3 N1          0.0217   -0.6637    1.1304 N.2       1 <0>        -0.3547
      4 N2          0.0237   -0.0247    2.2510 N.2       1 <0>        -0.3844
      5 C3          0.0436   -0.6931    3.3943 C.2       1 <0>         0.3660
      6 N3          0.0697   -2.0503    3.6062 N.pl3     1 <0>        -0.6426
      7 H1          0.0761   -2.6673    2.8578 H         1 <0>         0.4179
      8 C4          0.0869   -2.5143    4.8913 C.2       1 <0>         0.1377
      9 C5          0.0779   -1.6373    5.9178 C.2       1 <0>        -0.2218
     10 S1          0.0515   -0.0676    5.0672 S.3       1 <0>         0.1078
     11 C6          0.1146   -3.9690    5.1563 C.ar      1 <0>        -0.0311
     12 C7          0.1292   -4.8745    4.0943 C.ar      1 <0>        -0.1035
     13 C8          0.1556   -6.2302    4.3478 C.ar      1 <0>        -0.0820
     14 C9          0.1675   -6.6931    5.6525 C.ar      1 <0>        -0.0824
     15 C10         0.1531   -5.7999    6.7102 C.ar      1 <0>        -0.0833
     16 C11         0.1321   -4.4418    6.4693 C.ar      1 <0>        -0.0859
     17 Br1         0.2030   -8.5532    5.9914 Br        1 <0>        -0.0385
     18 C12        -0.0001   -0.7325   -1.2757 C.ar      1 <0>        -0.0575
     19 C13        -0.0153   -0.0297   -2.4852 C.ar      1 <0>        -0.0651
     20 C14        -0.0168   -0.7188   -3.6791 C.ar      1 <0>        -0.1549
     21 C15        -0.0037   -2.1050   -3.6829 C.ar      1 <0>         0.1103
     22 C16         0.0109   -2.8078   -2.4881 C.ar      1 <0>        -0.1587
     23 C17         0.0188   -2.1314   -1.2870 C.ar      1 <0>        -0.0538
     24 F1         -0.0057   -2.7741   -4.8566 F         1 <0>        -0.1368
     25 H2          1.0042    1.8801    0.0026 H         1 <0>         0.0797
     26 H3         -0.5455    1.8639   -0.8728 H         1 <0>         0.0730
     27 H4         -0.5286    1.8543    0.9071 H         1 <0>         0.0827
     28 H5          0.0887   -1.8344    6.9796 H         1 <0>         0.2086
     29 H6          0.1195   -4.5145    3.0761 H         1 <0>         0.1284
     30 H7          0.1665   -6.9318    3.5269 H         1 <0>         0.1402
     31 H8          0.1622   -6.1670    7.7258 H         1 <0>         0.1428
     32 H9          0.1251   -3.7458    7.2952 H         1 <0>         0.1430
     33 H10        -0.0262    1.0502   -2.4836 H         1 <0>         0.1419
     34 H11        -0.0285   -0.1775   -4.6136 H         1 <0>         0.1411
     35 H12         0.0203   -3.8877   -2.4984 H         1 <0>         0.1383
     36 H13         0.0347   -2.6800   -0.3569 H         1 <0>         0.1373
@<TRIPOS>BOND
     1    1    2 1
     2    1   25 1
     3    1   26 1
     4    1   27 1
     5    2    3 2
     6    2   18 1
     7    3    4 1
     8    4    5 2
     9    5   10 1
    10    5    6 1
    11    6    7 1
    12    6    8 1
    13    8    9 2
    14    8   11 1
    15    9   10 1
    16    9   28 1
    17   11   16 ar
    18   11   12 ar
    19   12   13 ar
    20   12   29 1
    21   13   14 ar
    22   13   30 1
    23   14   15 ar
    24   14   17 1
    25   15   16 ar
    26   15   31 1
    27   16   32 1
    28   18   23 ar
    29   18   19 ar
    30   19   20 ar
    31   19   33 1
    32   20   21 ar
    33   20   34 1
    34   21   22 ar
    35   21   24 1
    36   22   23 ar
    37   22   35 1
    38   23   36 1
@<TRIPOS>MOLECULE
ZINC02106096
   29    31     0     0     0
SMALL
USER_CHARGES
3,4-dichloro-N-(2,4-dibromophenyl)-benzothiophene-2-carboxamide
@<TRIPOS>ATOM
      1 C1         -1.2143    1.7567    0.0712 C.ar      1 <0>        -0.0550
      2 C2         -0.0124    1.0777    0.0540 C.ar      1 <0>        -0.0787
      3 C3          1.1691    1.7873    0.0367 C.ar      1 <0>        -0.0804
      4 C4          1.1990    3.2020    0.0417 C.ar      1 <0>        -0.1065
      5 C5         -0.0586    3.8593    0.0659 C.ar      1 <0>         0.0260
      6 C6         -1.2156    3.1456    0.0836 C.ar      1 <0>        -0.1154
      7 Cl1        -0.1202    5.5942    0.0737 Cl        1 <0>        -0.0396
      8 C7          2.4829    3.7782    0.0222 C.2       1 <0>         0.0350
      9 C8          3.5845    2.9789    0.0004 C.2       1 <0>        -0.2068
     10 S1          2.8859    1.3370    0.0059 S.3       1 <0>         0.1209
     11 C9          4.9986    3.3710   -0.0216 C.2       1 <0>         0.6076
     12 O1          5.3034    4.5491   -0.0218 O.2       1 <0>        -0.4746
     13 N1          5.9596    2.4263   -0.0415 N.am      1 <0>        -0.6643
     14 C10         7.3034    2.7978   -0.1576 C.ar      1 <0>         0.1915
     15 C11         7.7552    3.9691    0.4362 C.ar      1 <0>        -0.1083
     16 C12         9.0822    4.3335    0.3201 C.ar      1 <0>        -0.0528
     17 C13         9.9620    3.5327   -0.3868 C.ar      1 <0>        -0.1016
     18 C14         9.5155    2.3653   -0.9796 C.ar      1 <0>        -0.0410
     19 C15         8.1899    1.9927   -0.8624 C.ar      1 <0>        -0.1170
     20 Br1         7.5815    0.3928   -1.6663 Br        1 <0>        -0.0275
     21 Br2        11.7782    4.0356   -0.5433 Br        1 <0>        -0.0321
     22 Cl2         2.6613    5.5050    0.0263 Cl        1 <0>        -0.0011
     23 H1         -2.1468    1.2118    0.0803 H         1 <0>         0.1536
     24 H2          0.0019   -0.0022    0.0496 H         1 <0>         0.1484
     25 H3         -2.1588    3.6714    0.1027 H         1 <0>         0.1478
     26 H4          5.7196    1.4888    0.0246 H         1 <0>         0.4155
     27 H5          7.0695    4.5943    0.9887 H         1 <0>         0.1604
     28 H6          9.4338    5.2443    0.7818 H         1 <0>         0.1469
     29 H7         10.2044    1.7421   -1.5304 H         1 <0>         0.1494
@<TRIPOS>BOND
     1    1    6 ar
     2    1    2 ar
     3    1   23 1
     4    2    3 ar
     5    2   24 1
     6    3   10 1
     7    3    4 ar
     8    4    5 ar
     9    4    8 1
    10    5    6 ar
    11    5    7 1
    12    6   25 1
    13    8    9 2
    14    8   22 1
    15    9   10 1
    16    9   11 1
    17   11   12 2
    18   11   13 am
    19   13   14 1
    20   13   26 1
    21   14   19 ar
    22   14   15 ar
    23   15   16 ar
    24   15   27 1
    25   16   17 ar
    26   16   28 1
    27   17   18 ar
    28   17   21 1
    29   18   19 ar
    30   18   29 1
    31   19   20 1
@<TRIPOS>MOLECULE
ZINC03083304
   38    41     0     0     0
SMALL
USER_CHARGES
2-[(E)-[2-(3-chlorophenyl)-1,3-benzoxazol-6-yl]iminomethyl]-6-iodo-phenol
@<TRIPOS>ATOM
      1 C1        -12.5301    7.4580   -1.4453 C.ar      1 <0>        -0.1073
      2 C2        -11.2442    7.2752   -0.9796 C.ar      1 <0>        -0.0596
      3 C3        -10.4575    6.2446   -1.4965 C.ar      1 <0>        -0.0184
      4 C4        -10.9760    5.4079   -2.4865 C.ar      1 <0>        -0.0749
      5 C5        -12.2659    5.5981   -2.9402 C.ar      1 <0>        -0.0389
      6 C6        -13.0407    6.6228   -2.4226 C.ar      1 <0>        -0.0838
      7 Cl1       -12.9157    4.5552   -4.1664 Cl        1 <0>        -0.0553
      8 C7         -9.0793    6.0437   -1.0022 C.2       1 <0>         0.2915
      9 N1         -8.4980    6.7731   -0.0836 N.2       1 <0>        -0.4601
     10 C8         -7.2410    6.3034    0.1172 C.ar      1 <0>         0.0195
     11 C9         -6.1932    6.6876    0.9613 C.ar      1 <0>        -0.0404
     12 C10        -5.0135    6.0051    0.9390 C.ar      1 <0>        -0.1468
     13 C11        -4.8399    4.9168    0.0733 C.ar      1 <0>         0.1118
     14 C12        -5.8738    4.5265   -0.7776 C.ar      1 <0>        -0.0766
     15 C13        -7.0747    5.2122   -0.7540 C.ar      1 <0>         0.0283
     16 O1         -8.2378    5.0837   -1.4310 O.3       1 <0>        -0.2038
     17 N2         -3.6523    4.2396    0.0587 N.2       1 <0>        -0.4549
     18 C14        -2.5264    4.8978    0.0511 C.2       1 <0>         0.2087
     19 C15        -1.2493    4.1695    0.0355 C.ar      1 <0>        -0.1089
     20 C16        -0.0391    4.8712    0.0272 C.ar      1 <0>        -0.0513
     21 C17         1.1540    4.1822    0.0126 C.ar      1 <0>        -0.1329
     22 C18         1.1615    2.7969    0.0060 C.ar      1 <0>        -0.0483
     23 C19        -0.0263    2.0907    0.0135 C.ar      1 <0>        -0.1450
     24 C20        -1.2369    2.7665    0.0229 C.ar      1 <0>         0.1916
     25 O2         -2.4043    2.0742    0.0252 O.3       1 <0>        -0.4610
     26 I1          0.0021   -0.0041    0.0020 I         1 <0>        -0.0217
     27 H1        -13.1393    8.2555   -1.0461 H         1 <0>         0.1463
     28 H2        -10.8471    7.9285   -0.2168 H         1 <0>         0.1479
     29 H3        -10.3710    4.6112   -2.8934 H         1 <0>         0.1444
     30 H4        -14.0477    6.7706   -2.7838 H         1 <0>         0.1429
     31 H5         -6.3191    7.5257    1.6308 H         1 <0>         0.1422
     32 H6         -4.2075    6.3051    1.5922 H         1 <0>         0.1393
     33 H7         -5.7389    3.6909   -1.4483 H         1 <0>         0.1451
     34 H8         -2.5321    5.9777    0.0562 H         1 <0>         0.1169
     35 H9         -0.0401    5.9512    0.0319 H         1 <0>         0.1409
     36 H10         2.0878    4.7248    0.0059 H         1 <0>         0.1404
     37 H11         2.1017    2.2655   -0.0055 H         1 <0>         0.1365
     38 H12        -2.7382    1.8691    0.9092 H         1 <0>         0.3957
@<TRIPOS>BOND
     1    1    6 ar
     2    1    2 ar
     3    1   27 1
     4    2    3 ar
     5    2   28 1
     6    3    4 ar
     7    3    8 1
     8    4    5 ar
     9    4   29 1
    10    5    6 ar
    11    5    7 1
    12    6   30 1
    13    8   16 1
    14    8    9 2
    15    9   10 1
    16   10   15 ar
    17   10   11 ar
    18   11   12 ar
    19   11   31 1
    20   12   13 ar
    21   12   32 1
    22   13   14 ar
    23   13   17 1
    24   14   15 ar
    25   14   33 1
    26   15   16 1
    27   17   18 2
    28   18   19 1
    29   18   34 1
    30   19   24 ar
    31   19   20 ar
    32   20   21 ar
    33   20   35 1
    34   21   22 ar
    35   21   36 1
    36   22   23 ar
    37   22   37 1
    38   23   24 ar
    39   23   26 1
    40   24   25 1
    41   25   38 1
@<TRIPOS>MOLECULE
ZINC17095556
   56    60     0     0     0
SMALL
USER_CHARGES
2-(3,4-dimethylphenyl)-8-methyl-N-(4,5,6,7-tetrahydro-1,3-benzothiazol-2-yl)quinoline-4-carboxamide
@<TRIPOS>ATOM
      1 C1         -2.5236   -0.0387   -0.0027 C.3       1 <0>        -0.1090
      2 C2         -1.1932   -0.7463   -0.0200 C.ar      1 <0>        -0.0573
      3 C3         -1.1427   -2.1064   -0.0427 C.ar      1 <0>        -0.1030
      4 C4          0.0759   -2.7807   -0.0580 C.ar      1 <0>        -0.1011
      5 C5          1.2544   -2.0944   -0.0512 C.ar      1 <0>        -0.1093
      6 C6          1.2394   -0.6959   -0.0286 C.ar      1 <0>        -0.0592
      7 C7          0.0020   -0.0039   -0.0124 C.ar      1 <0>         0.1325
      8 N1         -0.0160    1.3298    0.0094 N.ar      1 <0>        -0.4415
      9 C8          1.0865    2.0486    0.0165 C.ar      1 <0>         0.1989
     10 C9          2.3623    1.4648    0.0027 C.ar      1 <0>        -0.1198
     11 C10         2.4787    0.0822   -0.0206 C.ar      1 <0>        -0.0719
     12 C11         3.8014   -0.5781   -0.0363 C.2       1 <0>         0.5624
     13 O1          3.8776   -1.7884    0.0479 O.2       1 <0>        -0.4506
     14 N2          4.9227    0.1618   -0.1439 N.am      1 <0>        -0.6142
     15 C12         6.1651   -0.4583   -0.1586 C.2       1 <0>         0.3021
     16 N3          6.4512   -1.7412   -0.0734 N.2       1 <0>        -0.5091
     17 C13         7.7024   -2.1924   -0.1060 C.2       1 <0>         0.0896
     18 C14         8.6728   -1.2484   -0.2211 C.2       1 <0>        -0.2029
     19 S1          7.7433    0.2593   -0.2866 S.3       1 <0>         0.0654
     20 C15        10.1483   -1.4553   -0.2756 C.3       1 <0>        -0.0314
     21 C16        10.4504   -2.8904    0.1847 C.3       1 <0>        -0.1143
     22 C17         9.5000   -3.8491   -0.5383 C.3       1 <0>        -0.1212
     23 C18         8.0734   -3.6682   -0.0170 C.3       1 <0>        -0.0406
     24 C19         0.9764    3.5272    0.0405 C.ar      1 <0>        -0.0601
     25 C20         2.1220    4.3158   -0.0566 C.ar      1 <0>        -0.1015
     26 C21         2.0135    5.6912   -0.0337 C.ar      1 <0>        -0.1187
     27 C22         0.7709    6.2878    0.0853 C.ar      1 <0>        -0.0700
     28 C23        -0.3690    5.5106    0.1819 C.ar      1 <0>        -0.0911
     29 C24        -0.2732    4.1339    0.1543 C.ar      1 <0>        -0.0695
     30 C25        -1.7189    6.1681    0.3107 C.3       1 <0>        -0.1193
     31 C26         0.6591    7.7905    0.1092 C.3       1 <0>        -0.1226
     32 H1         -2.8485    0.1492   -1.0261 H         1 <0>         0.0737
     33 H2         -3.2603   -0.6624    0.5036 H         1 <0>         0.0682
     34 H3         -2.4243    0.9089    0.5267 H         1 <0>         0.0776
     35 H4         -2.0627   -2.6720   -0.0485 H         1 <0>         0.1335
     36 H5          0.0877   -3.8605   -0.0759 H         1 <0>         0.1325
     37 H6          2.1936   -2.6275   -0.0629 H         1 <0>         0.1622
     38 H7          3.2458    2.0859    0.0097 H         1 <0>         0.1424
     39 H8          4.8619    1.1276   -0.2111 H         1 <0>         0.4255
     40 H9         10.5018   -1.3148   -1.2970 H         1 <0>         0.0845
     41 H10        10.6438   -0.7450    0.3864 H         1 <0>         0.0824
     42 H11        11.4817   -3.1436   -0.0609 H         1 <0>         0.0780
     43 H12        10.2990   -2.9685    1.2613 H         1 <0>         0.0702
     44 H13         9.5228   -3.6420   -1.6083 H         1 <0>         0.0678
     45 H14         9.8210   -4.8760   -0.3640 H         1 <0>         0.0765
     46 H15         7.3850   -4.2553   -0.6248 H         1 <0>         0.0844
     47 H16         8.0186   -3.9991    1.0201 H         1 <0>         0.0832
     48 H17         3.0925    3.8511   -0.1498 H         1 <0>         0.1240
     49 H18         2.9003    6.3031   -0.1092 H         1 <0>         0.1281
     50 H19        -1.1644    3.5280    0.2250 H         1 <0>         0.1361
     51 H20        -2.1375    6.3359   -0.6816 H         1 <0>         0.0726
     52 H21        -2.3851    5.5211    0.8814 H         1 <0>         0.0678
     53 H22        -1.6104    7.1227    0.8256 H         1 <0>         0.0720
     54 H23         0.5386    8.1621   -0.9084 H         1 <0>         0.0740
     55 H24        -0.2050    8.0811    0.7068 H         1 <0>         0.0730
     56 H25         1.5627    8.2152    0.5465 H         1 <0>         0.0678
@<TRIPOS>BOND
     1    1    2 1
     2    1   32 1
     3    1   33 1
     4    1   34 1
     5    2    7 ar
     6    2    3 ar
     7    3    4 ar
     8    3   35 1
     9    4    5 ar
    10    4   36 1
    11    5    6 ar
    12    5   37 1
    13    6   11 ar
    14    6    7 ar
    15    7    8 ar
    16    8    9 ar
    17    9   10 ar
    18    9   24 1
    19   10   11 ar
    20   10   38 1
    21   11   12 1
    22   12   13 2
    23   12   14 am
    24   14   15 1
    25   14   39 1
    26   15   19 1
    27   15   16 2
    28   16   17 1
    29   17   23 1
    30   17   18 2
    31   18   19 1
    32   18   20 1
    33   20   21 1
    34   20   40 1
    35   20   41 1
    36   21   22 1
    37   21   42 1
    38   21   43 1
    39   22   23 1
    40   22   44 1
    41   22   45 1
    42   23   46 1
    43   23   47 1
    44   24   29 ar
    45   24   25 ar
    46   25   26 ar
    47   25   48 1
    48   26   27 ar
    49   26   49 1
    50   27   28 ar
    51   27   31 1
    52   28   29 ar
    53   28   30 1
    54   29   50 1
    55   30   51 1
    56   30   52 1
    57   30   53 1
    58   31   54 1
    59   31   55 1
    60   31   56 1
@<TRIPOS>MOLECULE
ZINC33772967
   53    57     0     0     0
SMALL
USER_CHARGES
dichloro-N-(4-chloro-2-methyl-phenyl)-trimethyl-BLAHcarboxamide
@<TRIPOS>ATOM
      1 C1         -0.0951    2.3526   -0.1797 C.3       1 <0>        -0.1171
      2 C2         -0.7586    2.1678    1.1607 C.ar      1 <0>        -0.1033
      3 C3         -0.0444    2.3897    2.3221 C.ar      1 <0>        -0.0894
      4 C4         -0.6531    2.2206    3.5530 C.ar      1 <0>        -0.0508
      5 C5         -1.9787    1.8288    3.6242 C.ar      1 <0>        -0.0930
      6 C6         -2.6971    1.6056    2.4663 C.ar      1 <0>        -0.1192
      7 C7         -2.0900    1.7797    1.2294 C.ar      1 <0>         0.1600
      8 N1         -2.8177    1.5602    0.0540 N.am      1 <0>        -0.6684
      9 C8         -4.1605    1.6752    0.0615 C.2       1 <0>         0.5559
     10 O1         -4.7302    2.0657    1.0585 O.2       1 <0>        -0.5012
     11 C9         -4.9542    1.3185   -1.1689 C.3       1 <0>        -0.0381
     12 C10        -4.8393   -0.1596   -1.6588 C.3       1 <0>        -0.1127
     13 C11        -6.0615   -0.3438   -2.5898 C.3       1 <0>        -0.1138
     14 C12        -6.7768    1.0437   -2.5570 C.3       1 <0>        -0.0028
     15 C13        -6.5168    1.4601   -1.0629 C.3       1 <0>        -0.0203
     16 C14        -7.1266    0.4550   -0.0837 C.3       1 <0>        -0.1446
     17 C15        -6.9512    2.8948   -0.7563 C.3       1 <0>        -0.1458
     18 C16        -5.8145    1.9825   -3.2890 C.ar      1 <0>         0.1278
     19 C17        -4.6736    2.1542   -2.4205 C.ar      1 <0>         0.1325
     20 N2         -3.6566    2.8999   -2.7644 N.ar      1 <0>        -0.4156
     21 C18        -3.6737    3.5352   -3.9432 C.ar      1 <0>         0.0948
     22 C19        -2.5980    4.3468   -4.3433 C.ar      1 <0>        -0.0550
     23 C20        -2.6432    4.9827   -5.5463 C.ar      1 <0>        -0.0185
     24 C21        -3.7448    4.8399   -6.3927 C.ar      1 <0>        -0.0173
     25 C22        -4.8036    4.0610   -6.0379 C.ar      1 <0>        -0.0551
     26 C23        -4.7919    3.3897   -4.8029 C.ar      1 <0>         0.0586
     27 N3         -5.8870    2.5774   -4.4507 N.ar      1 <0>        -0.3855
     28 Cl1        -3.7648    5.6678   -7.9185 Cl        1 <0>        -0.0277
     29 Cl2        -1.3124    5.9844   -6.0353 Cl        1 <0>        -0.0278
     30 C24        -8.2319    1.0648   -3.0294 C.3       1 <0>        -0.1235
     31 Cl3         0.2471    2.5009    5.0106 Cl        1 <0>        -0.0708
     32 H1          0.9510    2.6589   -0.0319 H         1 <0>         0.0744
     33 H2         -0.6276    3.1291   -0.7485 H         1 <0>         0.0757
     34 H3         -0.1244    1.4047   -0.7371 H         1 <0>         0.0692
     35 H4          0.9899    2.6959    2.2692 H         1 <0>         0.1364
     36 H5         -2.4516    1.6978    4.5863 H         1 <0>         0.1360
     37 H6         -3.7316    1.3005    2.5224 H         1 <0>         0.1539
     38 H7         -2.2936    1.2939   -0.8757 H         1 <0>         0.4374
     39 H8         -3.8877   -0.2957   -2.1935 H         1 <0>         0.0784
     40 H9         -4.8733   -0.8367   -0.7926 H         1 <0>         0.0960
     41 H10        -5.7162   -0.6074   -3.6004 H         1 <0>         0.0789
     42 H11        -6.7017   -1.1486   -2.1995 H         1 <0>         0.0983
     43 H12        -8.2170    0.5950   -0.0462 H         1 <0>         0.0715
     44 H13        -6.7016    0.6151    0.9182 H         1 <0>         0.0768
     45 H14        -6.8995   -0.5677   -0.4192 H         1 <0>         0.0685
     46 H15        -8.0484    2.9400   -0.6926 H         1 <0>         0.0715
     47 H16        -6.6026    3.5627   -1.5578 H         1 <0>         0.0446
     48 H17        -6.5149    3.2131    0.2020 H         1 <0>         0.0831
     49 H18        -1.7395    4.4658   -3.6989 H         1 <0>         0.1615
     50 H19        -5.6487    3.9590   -6.7026 H         1 <0>         0.1611
     51 H20        -8.6248    2.0899   -2.9608 H         1 <0>         0.0678
     52 H21        -8.8334    0.3982   -2.3939 H         1 <0>         0.0751
     53 H22        -8.2835    0.7214   -4.0731 H         1 <0>         0.0719
@<TRIPOS>BOND
     1    1    2 1
     2    1   32 1
     3    1   33 1
     4    1   34 1
     5    2    7 ar
     6    2    3 ar
     7    3    4 ar
     8    3   35 1
     9    4    5 ar
    10    4   31 1
    11    5    6 ar
    12    5   36 1
    13    6    7 ar
    14    6   37 1
    15    7    8 1
    16    8    9 am
    17    8   38 1
    18    9   10 2
    19    9   11 1
    20   11   15 1
    21   11   19 1
    22   11   12 1
    23   12   13 1
    24   12   39 1
    25   12   40 1
    26   13   14 1
    27   13   41 1
    28   13   42 1
    29   14   15 1
    30   14   18 1
    31   14   30 1
    32   15   16 1
    33   15   17 1
    34   16   43 1
    35   16   44 1
    36   16   45 1
    37   17   46 1
    38   17   47 1
    39   17   48 1
    40   18   27 ar
    41   18   19 ar
    42   19   20 ar
    43   20   21 ar
    44   21   26 ar
    45   21   22 ar
    46   22   23 ar
    47   22   49 1
    48   23   24 ar
    49   23   29 1
    50   24   25 ar
    51   24   28 1
    52   25   26 ar
    53   25   50 1
    54   26   27 ar
    55   30   51 1
    56   30   52 1
    57   30   53 1
@<TRIPOS>MOLECULE
ZINC59517375
   48    51     0     0     0
SMALL
USER_CHARGES

@<TRIPOS>ATOM
      1 C1          0.0209    1.5055    0.0687 C.3       1 <0>        -0.1188
      2 C2          0.0373   -0.0013    0.0541 C.ar      1 <0>        -0.0686
      3 C3          0.0417   -0.6809   -1.1499 C.ar      1 <0>        -0.1270
      4 C4          0.0567   -2.0629   -1.1633 C.ar      1 <0>        -0.0881
      5 C5          0.0677   -2.7657    0.0273 C.ar      1 <0>        -0.0948
      6 C6          0.0641   -2.0863    1.2309 C.ar      1 <0>        -0.0565
      7 C7          0.0535   -0.7039    1.2443 C.ar      1 <0>        -0.1226
      8 C8          0.0756   -2.8524    2.5286 C.3       1 <0>        -0.1242
      9 C9          0.0830   -4.2726    0.0126 C.3       1 <0>        -0.0681
     10 S1          1.7993   -4.8597    0.0013 S.3       1 <0>         0.0433
     11 C10         1.6491   -6.6153   -0.0152 C.2       1 <0>         0.1145
     12 N1          0.5592   -7.3490   -0.0246 N.2       1 <0>        -0.5035
     13 C11         0.5944   -8.7005   -0.0374 C.ar      1 <0>         0.0735
     14 C12        -0.4958   -9.6009   -0.0479 C.ar      1 <0>        -0.0416
     15 C13        -0.2924  -10.9455   -0.0594 C.ar      1 <0>        -0.1262
     16 C14         0.9901  -11.4888   -0.0617 C.ar      1 <0>         0.1627
     17 C15         2.0867  -10.6357   -0.0521 C.ar      1 <0>        -0.0646
     18 C16         1.8841   -9.2788   -0.0401 C.ar      1 <0>        -0.1297
     19 S2          2.9406   -7.8505   -0.0315 S.3       1 <0>         0.0547
     20 N2          1.1720  -12.8773   -0.0732 N.am      1 <0>        -0.6637
     21 C17         2.2087  -13.4156   -0.7455 C.2       1 <0>         0.5607
     22 O1          3.0337  -12.6932   -1.2704 O.2       1 <0>        -0.5066
     23 C18         2.3425  -14.8839   -0.8445 C.ar      1 <0>        -0.1238
     24 C19         1.3935  -15.7161   -0.2476 C.ar      1 <0>        -0.0790
     25 C20         1.5237  -17.0856   -0.3440 C.ar      1 <0>        -0.0969
     26 C21         2.5929  -17.6357   -1.0310 C.ar      1 <0>        -0.0643
     27 C22         3.5374  -16.8156   -1.6251 C.ar      1 <0>        -0.0965
     28 C23         3.4153  -15.4446   -1.5403 C.ar      1 <0>        -0.0485
     29 Br1         2.7642  -19.5147   -1.1577 Br        1 <0>        -0.0351
     30 H1          1.0446    1.8800    0.0649 H         1 <0>         0.0736
     31 H2         -0.5033    1.8718   -0.8139 H         1 <0>         0.0685
     32 H3         -0.4903    1.8546    0.9659 H         1 <0>         0.0681
     33 H4          0.0332   -0.1319   -2.0799 H         1 <0>         0.1260
     34 H5          0.0595   -2.5938   -2.1038 H         1 <0>         0.1270
     35 H6          0.0545   -0.1729    2.1848 H         1 <0>         0.1260
     36 H7          1.1060   -3.0266    2.8385 H         1 <0>         0.0788
     37 H8         -0.4420   -2.2760    3.2953 H         1 <0>         0.0703
     38 H9         -0.4289   -3.8087    2.3904 H         1 <0>         0.0691
     39 H10        -0.4242   -4.6497    0.9006 H         1 <0>         0.1092
     40 H11        -0.4301   -4.6325   -0.8792 H         1 <0>         0.1050
     41 H12        -1.5046   -9.2153   -0.0464 H         1 <0>         0.1391
     42 H13        -1.1455  -11.6077   -0.0665 H         1 <0>         0.1395
     43 H14         3.0894  -11.0370   -0.0534 H         1 <0>         0.1512
     44 H15         0.5518  -13.4516    0.4027 H         1 <0>         0.4150
     45 H16         0.5595  -15.2882    0.2887 H         1 <0>         0.1366
     46 H17         0.7905  -17.7304    0.1176 H         1 <0>         0.1432
     47 H18         4.3690  -17.2506   -2.1595 H         1 <0>         0.1442
     48 H19         4.1501  -14.8060   -2.0078 H         1 <0>         0.1488
@<TRIPOS>BOND
     1    1    2 1
     2    1   30 1
     3    1   31 1
     4    1   32 1
     5    2    7 ar
     6    2    3 ar
     7    3    4 ar
     8    3   33 1
     9    4    5 ar
    10    4   34 1
    11    5    6 ar
    12    5    9 1
    13    6    7 ar
    14    6    8 1
    15    7   35 1
    16    8   36 1
    17    8   37 1
    18    8   38 1
    19    9   10 1
    20    9   39 1
    21    9   40 1
    22   10   11 1
    23   11   19 1
    24   11   12 2
    25   12   13 1
    26   13   18 ar
    27   13   14 ar
    28   14   15 ar
    29   14   41 1
    30   15   16 ar
    31   15   42 1
    32   16   17 ar
    33   16   20 1
    34   17   18 ar
    35   17   43 1
    36   18   19 1
    37   20   21 am
    38   20   44 1
    39   21   22 2
    40   21   23 1
    41   23   28 ar
    42   23   24 ar
    43   24   25 ar
    44   24   45 1
    45   25   26 ar
    46   25   46 1
    47   26   27 ar
    48   26   29 1
    49   27   28 ar
    50   27   47 1
    51   28   48 1
@<TRIPOS>MOLECULE
ZINC03187196
   41    44     0     0     0
SMALL
USER_CHARGES
N-(2-benzothiazol-2-ylphenyl)-3-methyl-benzamide
@<TRIPOS>ATOM
      1 C1          3.4732    1.7364    1.7166 C.3       1 <0>        -0.1174
      2 C2          2.2498    1.1360    1.0733 C.ar      1 <0>        -0.0914
      3 C3          2.3365   -0.0880    0.4336 C.ar      1 <0>        -0.0879
      4 C4          1.2184   -0.6458   -0.1603 C.ar      1 <0>        -0.1198
      5 C5          0.0084    0.0157   -0.1178 C.ar      1 <0>        -0.0902
      6 C6         -0.0861    1.2504    0.5262 C.ar      1 <0>        -0.1366
      7 C7          1.0461    1.8077    1.1235 C.ar      1 <0>        -0.0544
      8 C8         -1.3778    1.9676    0.5704 C.2       1 <0>         0.5654
      9 O1         -1.4571    3.0428    1.1320 O.2       1 <0>        -0.5057
     10 N1         -2.4676    1.4296   -0.0120 N.am      1 <0>        -0.6702
     11 C9         -3.7047    2.0631    0.1038 C.ar      1 <0>         0.1780
     12 C10        -3.7802    3.4488    0.1118 C.ar      1 <0>        -0.1206
     13 C11        -5.0065    4.0743    0.2222 C.ar      1 <0>        -0.0726
     14 C12        -6.1665    3.3263    0.3352 C.ar      1 <0>        -0.1339
     15 C13        -6.1089    1.9484    0.3342 C.ar      1 <0>        -0.0461
     16 C14        -4.8771    1.3031    0.2185 C.ar      1 <0>        -0.0562
     17 C15        -4.8089   -0.1723    0.2163 C.2       1 <0>         0.2111
     18 N2         -5.7942   -1.0441    0.2095 N.2       1 <0>        -0.4917
     19 C16        -5.5837   -2.3749    0.2079 C.ar      1 <0>         0.0792
     20 C17        -6.5464   -3.4126    0.2004 C.ar      1 <0>        -0.0583
     21 C18        -6.1644   -4.7174    0.1994 C.ar      1 <0>        -0.1101
     22 C19        -4.8260   -5.0853    0.2056 C.ar      1 <0>        -0.0904
     23 C20        -3.8534   -4.1029    0.2130 C.ar      1 <0>        -0.0679
     24 C21        -4.2284   -2.7817    0.2141 C.ar      1 <0>        -0.1391
     25 S1         -3.3667   -1.2282    0.2144 S.3       1 <0>        -0.0326
     26 H1          3.9974    2.3579    0.9907 H         1 <0>         0.0751
     27 H2          3.1732    2.3470    2.5683 H         1 <0>         0.0708
     28 H3          4.1337    0.9386    2.0562 H         1 <0>         0.0705
     29 H4          3.2813   -0.6100    0.3974 H         1 <0>         0.1308
     30 H5          1.2930   -1.6011   -0.6586 H         1 <0>         0.1322
     31 H6         -0.8636   -0.4206   -0.5821 H         1 <0>         0.1216
     32 H7          0.9797    2.7627    1.6234 H         1 <0>         0.1392
     33 H8         -2.3916    0.6017   -0.5117 H         1 <0>         0.4059
     34 H9         -2.8793    4.0387    0.0278 H         1 <0>         0.1494
     35 H10        -5.0608    5.1529    0.2242 H         1 <0>         0.1364
     36 H11        -7.1206    3.8243    0.4249 H         1 <0>         0.1364
     37 H12        -7.0163    1.3694    0.4226 H         1 <0>         0.1419
     38 H13        -7.5975   -3.1647    0.1958 H         1 <0>         0.1352
     39 H14        -6.9217   -5.4874    0.1940 H         1 <0>         0.1369
     40 H15        -4.5472   -6.1287    0.2050 H         1 <0>         0.1415
     41 H16        -2.8075   -4.3721    0.2175 H         1 <0>         0.1357
@<TRIPOS>BOND
     1    1    2 1
     2    1   26 1
     3    1   27 1
     4    1   28 1
     5    2    7 ar
     6    2    3 ar
     7    3    4 ar
     8    3   29 1
     9    4    5 ar
    10    4   30 1
    11    5    6 ar
    12    5   31 1
    13    6    7 ar
    14    6    8 1
    15    7   32 1
    16    8    9 2
    17    8   10 am
    18   10   11 1
    19   10   33 1
    20   11   16 ar
    21   11   12 ar
    22   12   13 ar
    23   12   34 1
    24   13   14 ar
    25   13   35 1
    26   14   15 ar
    27   14   36 1
    28   15   16 ar
    29   15   37 1
    30   16   17 1
    31   17   25 1
    32   17   18 2
    33   18   19 1
    34   19   24 ar
    35   19   20 ar
    36   20   21 ar
    37   20   38 1
    38   21   22 ar
    39   21   39 1
    40   22   23 ar
    41   22   40 1
    42   23   24 ar
    43   23   41 1
    44   24   25 1
@<TRIPOS>MOLECULE
ZINC05190951
   38    40     0     0     0
SMALL
USER_CHARGES
N-(5-chloro-4-methyl-benzothiazol-2-yl)-2-(p-tolylsulfanyl)acetamide
@<TRIPOS>ATOM
      1 C1          1.2243   -2.1878   -0.0223 C.3       1 <0>        -0.1171
      2 C2          1.2081   -0.6809   -0.0136 C.ar      1 <0>        -0.0870
      3 C3          0.0021   -0.0041    0.0020 C.ar      1 <0>        -0.0996
      4 C4         -0.0166    1.3766    0.0096 C.ar      1 <0>        -0.0909
      5 C5          1.1783    2.0861    0.0020 C.ar      1 <0>        -0.1081
      6 C6          2.3883    1.4026   -0.0123 C.ar      1 <0>        -0.1315
      7 C7          2.3992    0.0218   -0.0207 C.ar      1 <0>        -0.1006
      8 S1          1.1594    3.8480    0.0117 S.3       1 <0>        -0.0241
      9 C8          2.9146    4.3058   -0.0026 C.3       1 <0>        -0.1503
     10 C9          3.0421    5.8074    0.0042 C.2       1 <0>         0.5385
     11 O1          2.0470    6.5004    0.0174 O.2       1 <0>        -0.4689
     12 N1          4.2621    6.3801   -0.0044 N.am      1 <0>        -0.6056
     13 C10         4.3793    7.7605    0.0019 C.2       1 <0>         0.3569
     14 N2          5.4677    8.4944   -0.0045 N.2       1 <0>        -0.5354
     15 C11         5.4329    9.8445    0.0031 C.ar      1 <0>         0.1123
     16 C12         6.5226   10.7459   -0.0029 C.ar      1 <0>        -0.0249
     17 C13         6.3110   12.1008    0.0060 C.ar      1 <0>        -0.0294
     18 C14         5.0292   12.6343    0.0215 C.ar      1 <0>        -0.0889
     19 C15         3.9410   11.7813    0.0278 C.ar      1 <0>        -0.0518
     20 C16         4.1437   10.4238    0.0185 C.ar      1 <0>        -0.1773
     21 S2          3.0872    8.9953    0.0130 S.3       1 <0>         0.1195
     22 Cl1         7.6763   13.1729   -0.0019 Cl        1 <0>        -0.0539
     23 C17         7.9317   10.2118   -0.0188 C.3       1 <0>        -0.1172
     24 H1          1.2182   -2.5452   -1.0520 H         1 <0>         0.0727
     25 H2          2.1231   -2.5444    0.4807 H         1 <0>         0.0677
     26 H3          0.3433   -2.5636    0.4980 H         1 <0>         0.0687
     27 H4         -0.9262   -0.5561    0.0079 H         1 <0>         0.1299
     28 H5         -0.9588    1.9045    0.0169 H         1 <0>         0.1302
     29 H6          3.3188    1.9507   -0.0172 H         1 <0>         0.1211
     30 H7          3.3391   -0.5100   -0.0326 H         1 <0>         0.1266
     31 H8          3.4043    3.8955    0.8805 H         1 <0>         0.1301
     32 H9          3.3873    3.9051   -0.8993 H         1 <0>         0.1301
     33 H10         5.0580    5.8258   -0.0149 H         1 <0>         0.4310
     34 H11         4.8836   13.7044    0.0284 H         1 <0>         0.1498
     35 H12         2.9377   12.1808    0.0395 H         1 <0>         0.1444
     36 H13         8.2617   10.0879   -1.0502 H         1 <0>         0.0788
     37 H14         8.5918   10.9127    0.4921 H         1 <0>         0.0760
     38 H15         7.9608    9.2483    0.4902 H         1 <0>         0.0784
@<TRIPOS>BOND
     1    1    2 1
     2    1   24 1
     3    1   25 1
     4    1   26 1
     5    2    7 ar
     6    2    3 ar
     7    3    4 ar
     8    3   27 1
     9    4    5 ar
    10    4   28 1
    11    5    6 ar
    12    5    8 1
    13    6    7 ar
    14    6   29 1
    15    7   30 1
    16    8    9 1
    17    9   10 1
    18    9   31 1
    19    9   32 1
    20   10   11 2
    21   10   12 am
    22   12   13 1
    23   12   33 1
    24   13   21 1
    25   13   14 2
    26   14   15 1
    27   15   20 ar
    28   15   16 ar
    29   16   17 ar
    30   16   23 1
    31   17   18 ar
    32   17   22 1
    33   18   19 ar
    34   18   34 1
    35   19   20 ar
    36   19   35 1
    37   20   21 1
    38   23   36 1
    39   23   37 1
    40   23   38 1
@<TRIPOS>MOLECULE
ZINC10812818
   40    42     0     0     0
SMALL
USER_CHARGES
N-(5-chloro-4-methyl-benzothiazol-2-yl)-2-(4-ethylphenyl)-acetamide
@<TRIPOS>ATOM
      1 C1          1.2214   -2.6889   -1.4653 C.3       1 <0>        -0.1470
      2 C2          1.2289   -2.1857   -0.0205 C.3       1 <0>        -0.0887
      3 C3          1.2084   -0.6789   -0.0132 C.ar      1 <0>        -0.0734
      4 C4          0.0021   -0.0041    0.0020 C.ar      1 <0>        -0.1166
      5 C5         -0.0167    1.3781    0.0096 C.ar      1 <0>        -0.0976
      6 C6          1.1709    2.0855    0.0021 C.ar      1 <0>        -0.0857
      7 C7          2.3773    1.4107   -0.0145 C.ar      1 <0>        -0.0976
      8 C8          2.3961    0.0285   -0.0212 C.ar      1 <0>        -0.1166
      9 C9          1.1505    3.5924    0.0099 C.3       1 <0>        -0.0891
     10 C10         1.1570    4.0874    1.4333 C.2       1 <0>         0.5158
     11 O1          1.1763    3.2948    2.3508 O.2       1 <0>        -0.4786
     12 N1          1.1413    5.4111    1.6864 N.am      1 <0>        -0.6124
     13 C11         1.1473    5.8662    2.9949 C.2       1 <0>         0.3609
     14 N2          1.1346    7.1022    3.4368 N.2       1 <0>        -0.5404
     15 C12         1.1420    7.4026    4.7535 C.ar      1 <0>         0.1143
     16 C13         1.1297    8.6814    5.3574 C.ar      1 <0>        -0.0270
     17 C14         1.1399    8.8115    6.7224 C.ar      1 <0>        -0.0289
     18 C15         1.1625    7.7016    7.5564 C.ar      1 <0>        -0.0914
     19 C16         1.1746    6.4363    6.9991 C.ar      1 <0>        -0.0515
     20 C17         1.1645    6.2968    5.6337 C.ar      1 <0>        -0.1799
     21 S1          1.1664    4.9198    4.5109 S.3       1 <0>         0.1133
     22 Cl1         1.1248   10.3996    7.4235 Cl        1 <0>        -0.0551
     23 C18         1.1056    9.9144    4.4912 C.3       1 <0>        -0.1166
     24 H1          1.2362   -3.7788   -1.4706 H         1 <0>         0.0591
     25 H2          0.3215   -2.3353   -1.9686 H         1 <0>         0.0558
     26 H3          2.1012   -2.3111   -1.9862 H         1 <0>         0.0558
     27 H4          2.1288   -2.5393    0.4828 H         1 <0>         0.0727
     28 H5          0.3491   -2.5635    0.5004 H         1 <0>         0.0727
     29 H6         -0.9258   -0.5567    0.0083 H         1 <0>         0.1230
     30 H7         -0.9592    1.9054    0.0170 H         1 <0>         0.1211
     31 H8          3.3052    1.9634   -0.0205 H         1 <0>         0.1212
     32 H9          3.3386   -0.4987   -0.0324 H         1 <0>         0.1230
     33 H10         2.0306    3.9704   -0.5103 H         1 <0>         0.1158
     34 H11         0.2509    3.9462   -0.4937 H         1 <0>         0.1158
     35 H12         1.1259    6.0451    0.9525 H         1 <0>         0.4295
     36 H13         1.1703    7.8254    8.6293 H         1 <0>         0.1490
     37 H14         1.1919    5.5631    7.6343 H         1 <0>         0.1432
     38 H15         0.0723   10.1977    4.2911 H         1 <0>         0.0783
     39 H16         1.6128   10.7302    5.0063 H         1 <0>         0.0755
     40 H17         1.6144    9.7071    3.5498 H         1 <0>         0.0783
@<TRIPOS>BOND
     1    1    2 1
     2    1   24 1
     3    1   25 1
     4    1   26 1
     5    2    3 1
     6    2   27 1
     7    2   28 1
     8    3    8 ar
     9    3    4 ar
    10    4    5 ar
    11    4   29 1
    12    5    6 ar
    13    5   30 1
    14    6    7 ar
    15    6    9 1
    16    7    8 ar
    17    7   31 1
    18    8   32 1
    19    9   10 1
    20    9   33 1
    21    9   34 1
    22   10   11 2
    23   10   12 am
    24   12   13 1
    25   12   35 1
    26   13   21 1
    27   13   14 2
    28   14   15 1
    29   15   20 ar
    30   15   16 ar
    31   16   17 ar
    32   16   23 1
    33   17   18 ar
    34   17   22 1
    35   18   19 ar
    36   18   36 1
    37   19   20 ar
    38   19   37 1
    39   20   21 1
    40   23   38 1
    41   23   39 1
    42   23   40 1
@<TRIPOS>MOLECULE
ZINC37216606
   33    35     0     0     0
SMALL
USER_CHARGES

@<TRIPOS>ATOM
      1 C1         -0.0187    1.5258    0.0104 C.3       1 <0>        -0.1675
      2 C2          0.0021   -0.0041    0.0020 C.3       1 <0>         0.1894
      3 H1          0.5123   -0.3556   -0.8948 H         1 <0>         0.1023
      4 C3         -1.4117   -0.5257    0.0127 C.ar      1 <0>        -0.0663
      5 C4         -2.0144   -0.8638    1.2101 C.ar      1 <0>        -0.0882
      6 C5         -3.3110   -1.3423    1.2214 C.ar      1 <0>        -0.0860
      7 C6         -4.0071   -1.4839    0.0341 C.ar      1 <0>        -0.0235
      8 C7         -3.4047   -1.1457   -1.1653 C.ar      1 <0>        -0.0239
      9 C8         -2.1078   -0.6606   -1.1749 C.ar      1 <0>        -0.0167
     10 Cl1        -1.3533   -0.2287   -2.6775 Cl        1 <0>        -0.0264
     11 Cl2        -4.2769   -1.3228   -2.6558 Cl        1 <0>        -0.0199
     12 Cl3        -5.6353   -2.0861    0.0486 Cl        1 <0>        -0.0304
     13 N1          0.7106   -0.4894    1.1889 N.pl3     1 <0>        -0.7391
     14 C9          2.1051   -0.6040    1.1731 C.ar      1 <0>         0.2305
     15 C10         2.8179   -0.2524    0.0345 C.ar      1 <0>        -0.1894
     16 C11         4.1951   -0.3651    0.0176 C.ar      1 <0>        -0.0484
     17 C12         4.8685   -0.8286    1.1360 C.ar      1 <0>        -0.0271
     18 C13         4.1566   -1.1816    2.2797 C.ar      1 <0>         0.0828
     19 C14         2.7766   -1.0638    2.2976 C.ar      1 <0>        -0.1756
     20 O1          5.0401   -1.6031    3.2311 O.3       1 <0>        -0.3100
     21 C15         6.2598   -1.8922    2.5226 C.3       1 <0>         0.2144
     22 O2          6.1994   -1.0292    1.3716 O.3       1 <0>        -0.3107
     23 H2          1.0039    1.9031    0.0027 H         1 <0>         0.0737
     24 H3         -0.5459    1.8868   -0.8726 H         1 <0>         0.0711
     25 H4         -0.5289    1.8773    0.9072 H         1 <0>         0.0651
     26 H5         -1.4716   -0.7543    2.1373 H         1 <0>         0.1464
     27 H6         -3.7808   -1.6062    2.1574 H         1 <0>         0.1532
     28 H7          0.2131   -0.7312    1.9857 H         1 <0>         0.4003
     29 H8          2.2955    0.1092   -0.8389 H         1 <0>         0.1367
     30 H9          4.7475   -0.0917   -0.8693 H         1 <0>         0.1359
     31 H10         2.2229   -1.3332    3.1849 H         1 <0>         0.1335
     32 H11         7.1265   -1.6502    3.1377 H         1 <0>         0.1306
     33 H12         6.2862   -2.9379    2.2163 H         1 <0>         0.0832
@<TRIPOS>BOND
     1    1    2 1
     2    1   23 1
     3    1   24 1
     4    1   25 1
     5    2    3 1
     6    2    4 1
     7    2   13 1
     8    4    9 ar
     9    4    5 ar
    10    5    6 ar
    11    5   26 1
    12    6    7 ar
    13    6   27 1
    14    7    8 ar
    15    7   12 1
    16    8    9 ar
    17    8   11 1
    18    9   10 1
    19   13   14 1
    20   13   28 1
    21   14   19 ar
    22   14   15 ar
    23   15   16 ar
    24   15   29 1
    25   16   17 ar
    26   16   30 1
    27   17   22 1
    28   17   18 ar
    29   18   19 ar
    30   18   20 1
    31   19   31 1
    32   20   21 1
    33   21   22 1
    34   21   32 1
    35   21   33 1
@<TRIPOS>MOLECULE
ZINC00536445
   44    47     0     0     0
SMALL
USER_CHARGES

@<TRIPOS>ATOM
      1 C1          0.0787    1.5392    0.3627 C.ar      1 <0>        -0.1141
      2 C2          1.2984    2.1897    0.3525 C.ar      1 <0>        -0.1221
      3 C3          2.4675    1.4644    0.2177 C.ar      1 <0>        -0.1096
      4 C4          2.4169    0.0886    0.0934 C.ar      1 <0>        -0.0739
      5 C5          1.1972   -0.5620    0.1045 C.ar      1 <0>        -0.0804
      6 C6          0.0281    0.1634    0.2380 C.ar      1 <0>        -0.1203
      7 C7          3.6913   -0.7020   -0.0546 C.3       1 <0>        -0.0512
      8 H1          4.5437   -0.0228   -0.0419 H         1 <0>         0.1106
      9 C8          3.6669   -1.4652   -1.3804 C.3       1 <0>        -0.0814
     10 C9          5.0450   -2.1051   -1.6472 C.3       1 <0>        -0.1334
     11 C10         5.2374   -1.9683   -3.1780 C.3       1 <0>        -0.1221
     12 C11         4.6270   -0.5763   -3.4761 C.3       1 <0>        -0.1262
     13 C12         3.4011   -0.4932   -2.5433 C.3       1 <0>        -0.1170
     14 C13         3.8111   -1.6799    1.0858 C.2       1 <0>         0.5129
     15 O1          2.8942   -1.8144    1.8681 O.2       1 <0>        -0.4508
     16 N1          4.9372   -2.4049    1.2363 N.am      1 <0>        -0.6195
     17 C14         5.0047   -3.3851    2.2131 C.2       1 <0>         0.3748
     18 N2          4.0851   -3.7540    3.0740 N.2       1 <0>        -0.5071
     19 C15         4.2900   -4.7351    3.9793 C.ar      1 <0>         0.1025
     20 C16         3.3909   -5.2248    4.9548 C.ar      1 <0>        -0.0662
     21 C17         3.7612   -6.2342    5.8043 C.ar      1 <0>        -0.1054
     22 C18         5.0220   -6.8101    5.7401 C.ar      1 <0>        -0.1015
     23 C19         5.9266   -6.3562    4.7980 C.ar      1 <0>        -0.0618
     24 C20         5.5646   -5.3452    3.9431 C.ar      1 <0>        -0.1486
     25 S1          6.3631   -4.4742    2.6163 S.3       1 <0>        -0.0020
     26 H2         -0.8344    2.1054    0.4725 H         1 <0>         0.1217
     27 H3          1.3379    3.2646    0.4496 H         1 <0>         0.1229
     28 H4          3.4203    1.9727    0.2090 H         1 <0>         0.1212
     29 H5          1.1577   -1.6369    0.0071 H         1 <0>         0.1183
     30 H6         -0.9248   -0.3449    0.2462 H         1 <0>         0.1221
     31 H7          2.8958   -2.2351   -1.3536 H         1 <0>         0.0822
     32 H8          5.8267   -1.5634   -1.1145 H         1 <0>         0.0676
     33 H9          5.0408   -3.1554   -1.3556 H         1 <0>         0.0710
     34 H10         6.2958   -1.9896   -3.4377 H         1 <0>         0.0702
     35 H11         4.6929   -2.7503   -3.7071 H         1 <0>         0.0699
     36 H12         5.3411    0.2122   -3.2388 H         1 <0>         0.0671
     37 H13         4.3177   -0.5110   -4.5193 H         1 <0>         0.0673
     38 H14         2.5015   -0.7919   -3.0814 H         1 <0>         0.0683
     39 H15         3.2894    0.5222   -2.1631 H         1 <0>         0.0732
     40 H16         5.7005   -2.2404    0.6607 H         1 <0>         0.4276
     41 H17         2.4017   -4.7983    5.0314 H         1 <0>         0.1338
     42 H18         3.0557   -6.5894    6.5409 H         1 <0>         0.1354
     43 H19         5.2941   -7.6045    6.4193 H         1 <0>         0.1398
     44 H20         6.9116   -6.7945    4.7351 H         1 <0>         0.1342
@<TRIPOS>BOND
     1    1    6 ar
     2    1    2 ar
     3    1   26 1
     4    2    3 ar
     5    2   27 1
     6    3    4 ar
     7    3   28 1
     8    4    5 ar
     9    4    7 1
    10    5    6 ar
    11    5   29 1
    12    6   30 1
    13    7    8 1
    14    7    9 1
    15    7   14 1
    16    9   13 1
    17    9   10 1
    18    9   31 1
    19   10   11 1
    20   10   32 1
    21   10   33 1
    22   11   12 1
    23   11   34 1
    24   11   35 1
    25   12   13 1
    26   12   36 1
    27   12   37 1
    28   13   38 1
    29   13   39 1
    30   14   15 2
    31   14   16 am
    32   16   17 1
    33   16   40 1
    34   17   25 1
    35   17   18 2
    36   18   19 1
    37   19   24 ar
    38   19   20 ar
    39   20   21 ar
    40   20   41 1
    41   21   22 ar
    42   21   42 1
    43   22   23 ar
    44   22   43 1
    45   23   24 ar
    46   23   44 1
    47   24   25 1
@<TRIPOS>MOLECULE
ZINC27579425
   47    50     0     0     0
SMALL
USER_CHARGES

@<TRIPOS>ATOM
      1 C1          0.5637    1.1172   -0.6531 C.3       1 <0>        -0.1111
      2 C2          0.3700   -0.3699   -0.5052 C.ar      1 <0>        -0.1126
      3 C3          0.1411   -1.1494   -1.6323 C.ar      1 <0>        -0.0853
      4 C4         -0.0385   -2.5099   -1.5190 C.ar      1 <0>        -0.1278
      5 C5          0.0092   -3.1131   -0.2663 C.ar      1 <0>         0.1050
      6 C6          0.2422   -2.3205    0.8773 C.ar      1 <0>        -0.1061
      7 C7          0.4267   -0.9385    0.7335 C.ar      1 <0>        -0.0644
      8 C8          0.2391   -3.1911    1.9883 C.2       1 <0>        -0.0929
      9 C9          0.0071   -4.4534    1.5166 C.2       1 <0>        -0.0137
     10 N1         -0.1296   -4.4185    0.1544 N.pl3     1 <0>        -0.5592
     11 H1         -0.2965   -5.1836   -0.4181 H         1 <0>         0.4229
     12 C10        -0.0738   -5.6183    2.4296 C.2       1 <0>         0.4590
     13 O1         -0.4009   -6.7332    2.0613 O.2       1 <0>        -0.4387
     14 C11         0.2812   -5.2989    3.8327 C.2       1 <0>        -0.2039
     15 C12         0.9466   -6.1749    4.6194 C.2       1 <0>        -0.0092
     16 C13         1.4904   -7.4116    4.0443 C.ar      1 <0>        -0.1448
     17 C14         1.9516   -7.4278    2.7216 C.ar      1 <0>        -0.0297
     18 C15         2.4567   -8.5806    2.1906 C.ar      1 <0>        -0.2004
     19 C16         2.5132   -9.7388    2.9620 C.ar      1 <0>         0.2308
     20 C17         2.0554   -9.7274    4.2773 C.ar      1 <0>        -0.2054
     21 C18         1.5549   -8.5773    4.8185 C.ar      1 <0>        -0.0409
     22 N2          3.0279  -10.9104    2.4171 N.pl3     1 <0>        -0.6328
     23 C19         3.5095  -10.9249    1.0336 C.3       1 <0>         0.0895
     24 C20         3.0883  -12.1299    3.2266 C.3       1 <0>         0.0897
     25 C21        -0.1440   -3.9334    4.3348 C.3       1 <0>        -0.0692
     26 C22         0.4527   -2.8450    3.4381 C.3       1 <0>        -0.0520
     27 H2          1.6219    1.3329   -0.8007 H         1 <0>         0.0684
     28 H3         -0.0031    1.4737   -1.5133 H         1 <0>         0.0653
     29 H4          0.2124    1.6208    0.2475 H         1 <0>         0.0654
     30 H5          0.1033   -0.6839   -2.6061 H         1 <0>         0.1282
     31 H6         -0.2165   -3.1075   -2.4009 H         1 <0>         0.1232
     32 H7          0.6095   -0.3241    1.6026 H         1 <0>         0.1248
     33 H8          1.0779   -5.9648    5.6706 H         1 <0>         0.1367
     34 H9          1.9075   -6.5303    2.1224 H         1 <0>         0.1103
     35 H10         2.8124   -8.5940    1.1710 H         1 <0>         0.1213
     36 H11         2.1008  -10.6279    4.8718 H         1 <0>         0.1250
     37 H12         1.2046   -8.5682    5.8401 H         1 <0>         0.1254
     38 H13         4.5683  -10.6667    1.0148 H         1 <0>         0.0509
     39 H14         3.3706  -11.9200    0.6110 H         1 <0>         0.0686
     40 H15         2.9480  -10.1989    0.4458 H         1 <0>         0.0696
     41 H16         2.1640  -12.6942    3.1031 H         1 <0>         0.0508
     42 H17         3.9321  -12.7394    2.9030 H         1 <0>         0.0683
     43 H18         3.2139  -11.8635    4.2761 H         1 <0>         0.0712
     44 H19        -1.2315   -3.8627    4.3163 H         1 <0>         0.0774
     45 H20         0.2104   -3.7962    5.3564 H         1 <0>         0.0851
     46 H21         1.5213   -2.7601    3.6355 H         1 <0>         0.0831
     47 H22        -0.0296   -1.8923    3.6569 H         1 <0>         0.0843
@<TRIPOS>BOND
     1    1    2 1
     2    1   27 1
     3    1   28 1
     4    1   29 1
     5    2    7 ar
     6    2    3 ar
     7    3    4 ar
     8    3   30 1
     9    4    5 ar
    10    4   31 1
    11    5   10 1
    12    5    6 ar
    13    6    7 ar
    14    6    8 1
    15    7   32 1
    16    8   26 1
    17    8    9 2
    18    9   10 1
    19    9   12 1
    20   10   11 1
    21   12   13 2
    22   12   14 1
    23   14   15 2
    24   14   25 1
    25   15   16 1
    26   15   33 1
    27   16   21 ar
    28   16   17 ar
    29   17   18 ar
    30   17   34 1
    31   18   19 ar
    32   18   35 1
    33   19   20 ar
    34   19   22 1
    35   20   21 ar
    36   20   36 1
    37   21   37 1
    38   22   23 1
    39   22   24 1
    40   23   38 1
    41   23   39 1
    42   23   40 1
    43   24   41 1
    44   24   42 1
    45   24   43 1
    46   25   26 1
    47   25   44 1
    48   25   45 1
    49   26   46 1
    50   26   47 1
@<TRIPOS>MOLECULE
ZINC08956102
   46    49     0     0     0
SMALL
USER_CHARGES
N-(4,7-dichlorobenzothiazol-2-yl)-2-(p-tolylsulfonylamino)benzamide
@<TRIPOS>ATOM
      1 C1          7.9757    5.3329    6.6374 C.3       1 <0>        -0.1266
      2 C2          8.1352    5.1678    5.1480 C.ar      1 <0>        -0.0234
      3 C3          7.7755    3.9785    4.5420 C.ar      1 <0>        -0.1421
      4 C4          7.9218    3.8271    3.1757 C.ar      1 <0>        -0.0075
      5 C5          8.4268    4.8652    2.4154 C.ar      1 <0>        -0.6835
      6 C6          8.7910    6.0528    3.0221 C.ar      1 <0>        -0.0130
      7 C7          8.6406    6.2058    4.3877 C.ar      1 <0>        -0.1423
      8 S1          8.6132    4.6722    0.6739 S.o2      1 <0>         2.6868
      9 O1          8.7173    3.2763    0.4289 O.2       1 <0>        -0.9404
     10 O2          9.6159    5.5937    0.2682 O.2       1 <0>        -0.9478
     11 N1          7.1991    5.1719   -0.0282 N.pl3     1 <0>        -1.0425
     12 C8          6.7619    6.4785    0.1448 C.ar      1 <0>         0.2328
     13 C9          7.6797    7.5200    0.2057 C.ar      1 <0>        -0.1872
     14 C10         7.2431    8.8165    0.3834 C.ar      1 <0>        -0.0486
     15 C11         5.8894    9.0920    0.4974 C.ar      1 <0>        -0.1407
     16 C12         4.9640    8.0737    0.4341 C.ar      1 <0>        -0.0596
     17 C13         5.3899    6.7548    0.2541 C.ar      1 <0>        -0.1686
     18 C14         4.4053    5.6604    0.1855 C.2       1 <0>         0.5633
     19 O3          4.7801    4.5143    0.0287 O.2       1 <0>        -0.4586
     20 N2          3.0894    5.9299    0.2964 N.am      1 <0>        -0.6119
     21 C15         2.1644    4.9018    0.2320 C.2       1 <0>         0.3790
     22 N3          2.3725    3.6159    0.0694 N.2       1 <0>        -0.4956
     23 C16         1.3648    2.7173    0.0254 C.ar      1 <0>         0.1276
     24 C17         1.4517    1.3148   -0.1439 C.ar      1 <0>         0.0130
     25 C18         0.3204    0.5404   -0.1663 C.ar      1 <0>        -0.0871
     26 C19        -0.9429    1.0982   -0.0307 C.ar      1 <0>        -0.0803
     27 C20        -1.0646    2.4656    0.1424 C.ar      1 <0>         0.0223
     28 C21         0.0636    3.2493    0.1661 C.ar      1 <0>        -0.1492
     29 S2          0.3831    4.9873    0.3496 S.3       1 <0>         0.0558
     30 Cl1        -2.6333    3.1872    0.3214 Cl        1 <0>        -0.0427
     31 Cl2         3.0077    0.5668   -0.3257 Cl        1 <0>        -0.0305
     32 H1          8.8892    5.0126    7.1383 H         1 <0>         0.0815
     33 H2          7.7830    6.3806    6.8682 H         1 <0>         0.0740
     34 H3          7.1395    4.7250    6.9829 H         1 <0>         0.0735
     35 H4          7.3806    3.1676    5.1359 H         1 <0>         0.1342
     36 H5          7.6411    2.8978    2.7023 H         1 <0>         0.1412
     37 H6          9.1897    6.8623    2.4286 H         1 <0>         0.1407
     38 H7          8.9213    7.1350    4.8611 H         1 <0>         0.1347
     39 H8          6.6763    4.5519   -0.5603 H         1 <0>         0.4407
     40 H9          8.7362    7.3137    0.1185 H         1 <0>         0.1720
     41 H10         7.9607    9.6221    0.4343 H         1 <0>         0.1409
     42 H11         5.5585   10.1106    0.6369 H         1 <0>         0.1376
     43 H12         3.9106    8.2942    0.5239 H         1 <0>         0.1309
     44 H13         2.7904    6.8442    0.4215 H         1 <0>         0.4306
     45 H14         0.4144   -0.5276   -0.2969 H         1 <0>         0.1565
     46 H15        -1.8218    0.4711   -0.0559 H         1 <0>         0.1599
@<TRIPOS>BOND
     1    1    2 1
     2    1   32 1
     3    1   33 1
     4    1   34 1
     5    2    7 ar
     6    2    3 ar
     7    3    4 ar
     8    3   35 1
     9    4    5 ar
    10    4   36 1
    11    5    6 ar
    12    5    8 1
    13    6    7 ar
    14    6   37 1
    15    7   38 1
    16    8    9 2
    17    8   10 2
    18    8   11 1
    19   11   12 1
    20   11   39 1
    21   12   17 ar
    22   12   13 ar
    23   13   14 ar
    24   13   40 1
    25   14   15 ar
    26   14   41 1
    27   15   16 ar
    28   15   42 1
    29   16   17 ar
    30   16   43 1
    31   17   18 1
    32   18   19 2
    33   18   20 am
    34   20   21 1
    35   20   44 1
    36   21   29 1
    37   21   22 2
    38   22   23 1
    39   23   28 ar
    40   23   24 ar
    41   24   25 ar
    42   24   31 1
    43   25   26 ar
    44   25   45 1
    45   26   27 ar
    46   26   46 1
    47   27   28 ar
    48   27   30 1
    49   28   29 1
@<TRIPOS>MOLECULE
ZINC16044515
   62    66     0     0     0
SMALL
USER_CHARGES
(5S)-N'-[[1,3-dioxo-2-(p-tolyl)-4-isoquinolylidene]methyl]-5-ethyl-4,5,6,7-tetrahydrobenzothiophene-2-carbohydrazide
@<TRIPOS>ATOM
      1 C1         10.4391   -9.6448    1.0102 C.3       1 <0>        -0.1568
      2 C2         11.1537   -8.6901    0.0516 C.3       1 <0>        -0.1198
      3 C3         10.5735   -7.2829    0.2066 C.3       1 <0>        -0.0894
      4 H1         10.6333   -6.9799    1.2519 H         1 <0>         0.0750
      5 C4         11.3791   -6.3035   -0.6516 C.3       1 <0>        -0.1110
      6 C5         10.9676   -4.8707   -0.2836 C.3       1 <0>        -0.0482
      7 C6          9.4718   -4.7987   -0.2658 C.2       1 <0>        -0.1382
      8 C7          8.5970   -5.8474   -0.2463 C.2       1 <0>        -0.1426
      9 C8          7.2476   -5.5341   -0.2331 C.2       1 <0>        -0.0391
     10 C9          6.8871   -4.1993   -0.2401 C.2       1 <0>        -0.2569
     11 S1          8.4784   -3.3916   -0.2735 S.3       1 <0>         0.1488
     12 C10         5.5480   -3.6033   -0.2295 C.2       1 <0>         0.6166
     13 O1          4.5636   -4.3188   -0.2119 O.2       1 <0>        -0.5127
     14 N1          5.4068   -2.2630   -0.2391 N.am      1 <0>        -0.5345
     15 N2          4.1268   -1.6934   -0.2290 N.pl3     1 <0>        -0.4769
     16 C11         3.9845   -0.3423   -0.2387 C.2       1 <0>         0.2892
     17 C12         2.7381    0.2202   -0.0731 C.2       1 <0>        -0.3227
     18 C13         1.6780   -0.4861    0.6761 C.ar      1 <0>         0.0464
     19 C14         1.8911   -1.7384    1.2406 C.ar      1 <0>        -0.1782
     20 C15         0.8688   -2.3573    1.9306 C.ar      1 <0>        -0.0569
     21 C16        -0.3664   -1.7399    2.0644 C.ar      1 <0>        -0.1493
     22 C17        -0.5965   -0.4985    1.5118 C.ar      1 <0>        -0.0261
     23 C18         0.4237    0.1447    0.8100 C.ar      1 <0>        -0.1635
     24 C19         0.2203    1.4673    0.2055 C.2       1 <0>         0.5679
     25 O2         -0.8609    2.0142    0.3132 O.2       1 <0>        -0.4912
     26 N3          1.2062    2.0809   -0.4691 N.am      1 <0>        -0.5102
     27 C20         2.4235    1.5386   -0.6349 C.2       1 <0>         0.5891
     28 O3          3.2745    2.1469   -1.2576 O.2       1 <0>        -0.5105
     29 C21         0.9537    3.3422   -1.0242 C.ar      1 <0>         0.1091
     30 C22         1.7550    4.4244   -0.6855 C.ar      1 <0>        -0.0874
     31 C23         1.5071    5.6654   -1.2388 C.ar      1 <0>        -0.1134
     32 C24         0.4552    5.8331   -2.1206 C.ar      1 <0>        -0.0782
     33 C25        -0.3481    4.7585   -2.4555 C.ar      1 <0>        -0.1129
     34 C26        -0.1018    3.5139   -1.9098 C.ar      1 <0>        -0.0886
     35 C27         0.1839    7.1898   -2.7181 C.3       1 <0>        -0.1160
     36 C28         9.1107   -7.2849   -0.2386 C.3       1 <0>        -0.0536
     37 H2         10.8524  -10.6473    0.8998 H         1 <0>         0.0552
     38 H3         10.5816   -9.3039    2.0357 H         1 <0>         0.0542
     39 H4          9.3743   -9.6632    0.7781 H         1 <0>         0.0562
     40 H5         11.0112   -9.0310   -0.9739 H         1 <0>         0.0641
     41 H6         12.2185   -8.6717    0.2837 H         1 <0>         0.0654
     42 H7         12.4434   -6.4389   -0.4593 H         1 <0>         0.0781
     43 H8         11.1722   -6.4859   -1.7062 H         1 <0>         0.0707
     44 H9         11.3591   -4.6180    0.7018 H         1 <0>         0.0916
     45 H10        11.3605   -4.1742   -1.0243 H         1 <0>         0.0886
     46 H11         6.4977   -6.3111   -0.2173 H         1 <0>         0.1480
     47 H12         6.1913   -1.6927   -0.2532 H         1 <0>         0.4300
     48 H13         3.3423   -2.2636   -0.2150 H         1 <0>         0.4492
     49 H14         4.8486    0.2908   -0.3763 H         1 <0>         0.1755
     50 H15         2.8506   -2.2237    1.1400 H         1 <0>         0.1321
     51 H16         1.0318   -3.3301    2.3704 H         1 <0>         0.1318
     52 H17        -1.1563   -2.2376    2.6072 H         1 <0>         0.1340
     53 H18        -1.5613   -0.0259    1.6216 H         1 <0>         0.1410
     54 H19         2.5740    4.2950    0.0066 H         1 <0>         0.1253
     55 H20         2.1329    6.5065   -0.9795 H         1 <0>         0.1292
     56 H21        -1.1687    4.8926   -3.1447 H         1 <0>         0.1291
     57 H22        -0.7293    2.6749   -2.1721 H         1 <0>         0.1246
     58 H23        -0.5054    7.7383   -2.0762 H         1 <0>         0.0729
     59 H24         1.1193    7.7429   -2.8033 H         1 <0>         0.0681
     60 H25        -0.2583    7.0693   -3.7070 H         1 <0>         0.0680
     61 H26         8.5184   -7.8809    0.4556 H         1 <0>         0.0801
     62 H27         9.0323   -7.7062   -1.2409 H         1 <0>         0.0795
@<TRIPOS>BOND
     1    1    2 1
     2    1   37 1
     3    1   38 1
     4    1   39 1
     5    2    3 1
     6    2   40 1
     7    2   41 1
     8    3    4 1
     9    3   36 1
    10    3    5 1
    11    5    6 1
    12    5   42 1
    13    5   43 1
    14    6    7 1
    15    6   44 1
    16    6   45 1
    17    7   11 1
    18    7    8 2
    19    8    9 1
    20    8   36 1
    21    9   10 2
    22    9   46 1
    23   10   11 1
    24   10   12 1
    25   12   13 2
    26   12   14 am
    27   14   15 1
    28   14   47 1
    29   15   16 1
    30   15   48 1
    31   16   17 2
    32   16   49 1
    33   17   27 1
    34   17   18 1
    35   18   23 ar
    36   18   19 ar
    37   19   20 ar
    38   19   50 1
    39   20   21 ar
    40   20   51 1
    41   21   22 ar
    42   21   52 1
    43   22   23 ar
    44   22   53 1
    45   23   24 1
    46   24   25 2
    47   24   26 am
    48   26   27 am
    49   26   29 1
    50   27   28 2
    51   29   34 ar
    52   29   30 ar
    53   30   31 ar
    54   30   54 1
    55   31   32 ar
    56   31   55 1
    57   32   33 ar
    58   32   35 1
    59   33   34 ar
    60   33   56 1
    61   34   57 1
    62   35   58 1
    63   35   59 1
    64   35   60 1
    65   36   61 1
    66   36   62 1
@<TRIPOS>MOLECULE
ZINC34905317
   59    62     0     0     0
SMALL
USER_CHARGES

@<TRIPOS>ATOM
      1 C1         -0.0184    1.5028    0.0103 C.3       1 <0>        -0.1131
      2 C2          0.0021   -0.0041    0.0020 C.ar      1 <0>        -0.1196
      3 C3          0.0057   -0.6876   -1.1998 C.ar      1 <0>        -0.0800
      4 C4          0.0240   -2.0689   -1.2101 C.ar      1 <0>        -0.1427
      5 C5          0.0391   -2.7702   -0.0132 C.ar      1 <0>         0.1224
      6 C6          0.0359   -2.0820    1.1914 C.ar      1 <0>        -0.2039
      7 C7          0.0229   -0.7006    1.1962 C.ar      1 <0>        -0.0797
      8 O1          0.0567   -4.1291   -0.0207 O.3       1 <0>        -0.3089
      9 C8          0.0716   -4.7847    1.2490 C.3       1 <0>         0.1554
     10 C9          0.0899   -6.2775    1.0433 C.2       1 <0>        -0.0155
     11 N1          1.1268   -7.0624    0.9335 N.2       1 <0>        -0.4515
     12 C10         0.9169   -8.3703    0.7541 C.2       1 <0>        -0.0149
     13 C11        -0.3922   -8.7682    0.7019 C.2       1 <0>        -0.2242
     14 S1         -1.2187   -7.3204    0.9093 S.3       1 <0>         0.3133
     15 C12         2.0284   -9.3271    0.6200 C.2       1 <0>         0.5974
     16 O2          1.7963  -10.5100    0.4574 O.2       1 <0>        -0.5276
     17 N2          3.3027   -8.8920    0.6775 N.am      1 <0>        -0.7105
     18 C13         4.4084   -9.8438    0.5441 C.3       1 <0>         0.1392
     19 H1          4.1292  -10.6289   -0.1585 H         1 <0>         0.0993
     20 C14         4.7136  -10.4654    1.9085 C.3       1 <0>        -0.1281
     21 C15         5.1055   -9.3634    2.8948 C.3       1 <0>        -0.1211
     22 C16         6.3468   -8.6338    2.3775 C.3       1 <0>        -0.1174
     23 C17         6.0416   -8.0122    1.0132 C.3       1 <0>        -0.1314
     24 C18         5.6497   -9.1142    0.0269 C.3       1 <0>         0.1407
     25 H2          6.4724   -9.8224   -0.0724 H         1 <0>         0.1091
     26 N3          5.3575   -8.5190   -1.2795 N.am      1 <0>        -0.7209
     27 C19         6.3586   -8.2760   -2.1485 C.2       1 <0>         0.5642
     28 O3          7.5041   -8.5506   -1.8482 O.2       1 <0>        -0.5228
     29 C20         6.0638   -7.6756   -3.4663 C.ar      1 <0>        -0.1205
     30 C21         4.7497   -7.3538   -3.8116 C.ar      1 <0>        -0.0695
     31 C22         4.4800   -6.7939   -5.0424 C.ar      1 <0>        -0.1032
     32 C23         5.5095   -6.5506   -5.9365 C.ar      1 <0>        -0.0076
     33 C24         6.8161   -6.8676   -5.6000 C.ar      1 <0>        -0.0398
     34 C25         7.0986   -7.4228   -4.3683 C.ar      1 <0>        -0.0383
     35 Cl1         8.1003   -6.5592   -6.7268 Cl        1 <0>        -0.0348
     36 Cl2         5.1618   -5.8464   -7.4847 Cl        1 <0>        -0.0355
     37 H3          1.0042    1.8801    0.0026 H         1 <0>         0.0696
     38 H4         -0.5455    1.8639   -0.8728 H         1 <0>         0.0665
     39 H5         -0.5286    1.8543    0.9071 H         1 <0>         0.0658
     40 H6         -0.0061   -0.1412   -2.1314 H         1 <0>         0.1306
     41 H7          0.0261   -2.6024   -2.1492 H         1 <0>         0.1313
     42 H8          0.0477   -2.6256    2.1245 H         1 <0>         0.1284
     43 H9          0.0248   -0.1643    2.1337 H         1 <0>         0.1264
     44 H10         0.9606   -4.4833    1.8030 H         1 <0>         0.0970
     45 H11        -0.8192   -4.5064    1.8121 H         1 <0>         0.0926
     46 H12        -0.7923   -9.7620    0.5655 H         1 <0>         0.2111
     47 H13         3.4877   -7.9487    0.8072 H         1 <0>         0.4100
     48 H14         3.8292  -10.9852    2.2770 H         1 <0>         0.0759
     49 H15         5.5363  -11.1735    1.8092 H         1 <0>         0.0791
     50 H16         4.2828   -8.6552    2.9940 H         1 <0>         0.0628
     51 H17         5.3229   -9.8062    3.8668 H         1 <0>         0.0677
     52 H18         6.6260   -7.8486    3.0802 H         1 <0>         0.0690
     53 H19         7.1695   -9.3419    2.2783 H         1 <0>         0.0689
     54 H20         5.2190   -7.3040    1.1124 H         1 <0>         0.0639
     55 H21         6.9260   -7.4924    0.6447 H         1 <0>         0.0759
     56 H22         4.4434   -8.2999   -1.5190 H         1 <0>         0.4006
     57 H23         3.9457   -7.5436   -3.1159 H         1 <0>         0.1393
     58 H24         3.4638   -6.5448   -5.3101 H         1 <0>         0.1512
     59 H25         8.1175   -7.6655   -4.1049 H         1 <0>         0.1580
@<TRIPOS>BOND
     1    1    2 1
     2    1   37 1
     3    1   38 1
     4    1   39 1
     5    2    7 ar
     6    2    3 ar
     7    3    4 ar
     8    3   40 1
     9    4    5 ar
    10    4   41 1
    11    5    6 ar
    12    5    8 1
    13    6    7 ar
    14    6   42 1
    15    7   43 1
    16    8    9 1
    17    9   10 1
    18    9   44 1
    19    9   45 1
    20   10   14 1
    21   10   11 2
    22   11   12 1
    23   12   13 2
    24   12   15 1
    25   13   14 1
    26   13   46 1
    27   15   16 2
    28   15   17 am
    29   17   18 1
    30   17   47 1
    31   18   19 1
    32   18   24 1
    33   18   20 1
    34   20   21 1
    35   20   48 1
    36   20   49 1
    37   21   22 1
    38   21   50 1
    39   21   51 1
    40   22   23 1
    41   22   52 1
    42   22   53 1
    43   23   24 1
    44   23   54 1
    45   23   55 1
    46   24   25 1
    47   24   26 1
    48   26   27 am
    49   26   56 1
    50   27   28 2
    51   27   29 1
    52   29   34 ar
    53   29   30 ar
    54   30   31 ar
    55   30   57 1
    56   31   32 ar
    57   31   58 1
    58   32   33 ar
    59   32   36 1
    60   33   34 ar
    61   33   35 1
    62   34   59 1
@<TRIPOS>MOLECULE
ZINC45581458
   64    68     0     0     0
SMALL
USER_CHARGES

@<TRIPOS>ATOM
      1 C1         -0.0187    1.5258    0.0104 C.3       1 <0>        -0.1555
      2 C2          0.0021   -0.0041    0.0020 C.3       1 <0>        -0.1160
      3 C3         -1.4333   -0.5336    0.0129 C.3       1 <0>        -0.0550
      4 H1         -1.9701   -0.1109    0.8621 H         1 <0>         0.0789
      5 C4         -2.1352   -0.1312   -1.2857 C.3       1 <0>        -0.1466
      6 C5         -1.4136   -2.0361    0.1285 C.ar      1 <0>        -0.0662
      7 C6         -0.7798   -2.7953   -0.8374 C.ar      1 <0>        -0.1091
      8 C7         -0.7617   -4.1735   -0.7313 C.ar      1 <0>        -0.0954
      9 C8         -1.3769   -4.7924    0.3407 C.ar      1 <0>        -0.0992
     10 C9         -2.0099   -4.0331    1.3070 C.ar      1 <0>        -0.1037
     11 C10        -2.0243   -2.6547    1.2033 C.ar      1 <0>        -0.1117
     12 C11        -1.3580   -6.2949    0.4558 C.3       1 <0>         0.2799
     13 H2         -0.5503   -6.6960   -0.1563 H         1 <0>         0.1171
     14 C12        -2.6744   -6.8518   -0.0218 C.2       1 <0>        -0.1516
     15 C13        -2.9811   -7.4108   -1.2179 C.2       1 <0>        -0.1415
     16 C14        -4.2702   -7.8589   -1.4376 C.2       1 <0>        -0.1551
     17 C15        -5.1894   -7.7262   -0.4503 C.2       1 <0>        -0.1718
     18 S1         -4.2324   -6.9538    0.8439 S.3       1 <0>         0.0451
     19 N1         -1.1457   -6.6749    1.8546 N.am      1 <0>        -0.7204
     20 C16        -0.6004   -7.8708    2.1527 C.2       1 <0>         0.5078
     21 O1         -0.2856   -8.6324    1.2629 O.2       1 <0>        -0.5161
     22 C17        -0.3820   -8.2617    3.5916 C.3       1 <0>         0.0993
     23 N2          0.2184   -9.5968    3.6492 N.am      1 <0>        -0.5631
     24 C18        -0.4892  -10.7460    3.7043 C.2       1 <0>         0.5458
     25 O2         -1.6953  -10.8679    3.7147 O.2       1 <0>        -0.4471
     26 C19         0.5415  -11.8441    3.7492 C.3       1 <0>         0.1690
     27 C20         0.3874  -12.7988    2.5584 C.3       1 <0>        -0.1105
     28 C21        -0.4660  -13.9370    3.1623 C.3       1 <0>        -0.0849
     29 C22        -0.1832  -13.9000    4.6498 C.ar      1 <0>        -0.0670
     30 C23         0.3983  -12.6886    4.9863 C.ar      1 <0>        -0.1160
     31 C24         0.7430  -12.4358    6.3035 C.ar      1 <0>        -0.0811
     32 C25         0.5093  -13.3843    7.2799 C.ar      1 <0>        -0.1218
     33 C26        -0.0713  -14.5925    6.9433 C.ar      1 <0>        -0.0985
     34 C27        -0.4161  -14.8484    5.6304 C.ar      1 <0>        -0.1085
     35 N3          1.8264  -11.1458    3.7120 N.am      1 <0>        -0.7114
     36 C28         1.5375   -9.8301    3.6481 C.2       1 <0>         0.7096
     37 O3          2.3790   -8.9546    3.5983 O.2       1 <0>        -0.5344
     38 H3          1.0039    1.9031    0.0027 H         1 <0>         0.0552
     39 H4         -0.5459    1.8868   -0.8726 H         1 <0>         0.0576
     40 H5         -0.5289    1.8773    0.9072 H         1 <0>         0.0543
     41 H6          0.5123   -0.3556   -0.8948 H         1 <0>         0.0639
     42 H7          0.5293   -0.3651    0.8851 H         1 <0>         0.0632
     43 H8         -3.1578   -0.5085   -1.2779 H         1 <0>         0.0557
     44 H9         -2.1495    0.9555   -1.3693 H         1 <0>         0.0622
     45 H10        -1.5984   -0.5539   -2.1349 H         1 <0>         0.0569
     46 H11        -0.2992   -2.3118   -1.6750 H         1 <0>         0.1252
     47 H12        -0.2672   -4.7667   -1.4863 H         1 <0>         0.1252
     48 H13        -2.4908   -4.5166    2.1444 H         1 <0>         0.1194
     49 H14        -2.5156   -2.0613    1.9601 H         1 <0>         0.1250
     50 H15        -2.2297   -7.5042   -1.9880 H         1 <0>         0.1322
     51 H16        -4.5410   -8.3077   -2.3818 H         1 <0>         0.1345
     52 H17        -6.2297   -8.0162   -0.4462 H         1 <0>         0.1858
     53 H18        -1.3975   -6.0657    2.5663 H         1 <0>         0.4046
     54 H19         0.2854   -7.5424    4.0663 H         1 <0>         0.1319
     55 H20        -1.3381   -8.2705    4.1149 H         1 <0>         0.1286
     56 H21        -0.1389  -12.3129    1.7368 H         1 <0>         0.0929
     57 H22         1.3580  -13.1724    2.2322 H         1 <0>         0.0986
     58 H23        -1.5244  -13.7567    2.9741 H         1 <0>         0.0944
     59 H24        -0.1653  -14.8977    2.7441 H         1 <0>         0.0896
     60 H25         1.1971  -11.4924    6.5686 H         1 <0>         0.1198
     61 H26         0.7804  -13.1822    8.3056 H         1 <0>         0.1297
     62 H27        -0.2548  -15.3354    7.7054 H         1 <0>         0.1301
     63 H28        -0.8697  -15.7928    5.3680 H         1 <0>         0.1274
     64 H29         2.7088  -11.5484    3.7265 H         1 <0>         0.4433
@<TRIPOS>BOND
     1    1    2 1
     2    1   38 1
     3    1   39 1
     4    1   40 1
     5    2    3 1
     6    2   41 1
     7    2   42 1
     8    3    4 1
     9    3    5 1
    10    3    6 1
    11    5   43 1
    12    5   44 1
    13    5   45 1
    14    6   11 ar
    15    6    7 ar
    16    7    8 ar
    17    7   46 1
    18    8    9 ar
    19    8   47 1
    20    9   10 ar
    21    9   12 1
    22   10   11 ar
    23   10   48 1
    24   11   49 1
    25   12   13 1
    26   12   14 1
    27   12   19 1
    28   14   18 1
    29   14   15 2
    30   15   16 1
    31   15   50 1
    32   16   17 2
    33   16   51 1
    34   17   18 1
    35   17   52 1
    36   19   20 am
    37   19   53 1
    38   20   21 2
    39   20   22 1
    40   22   23 1
    41   22   54 1
    42   22   55 1
    43   23   36 am
    44   23   24 am
    45   24   25 2
    46   24   26 1
    47   26   30 1
    48   26   27 1
    49   26   35 1
    50   27   28 1
    51   27   56 1
    52   27   57 1
    53   28   29 1
    54   28   58 1
    55   28   59 1
    56   29   34 ar
    57   29   30 ar
    58   30   31 ar
    59   31   32 ar
    60   31   60 1
    61   32   33 ar
    62   32   61 1
    63   33   34 ar
    64   33   62 1
    65   34   63 1
    66   35   36 am
    67   35   64 1
    68   36   37 2
@<TRIPOS>MOLECULE
ZINC62038674
   52    55     0     0     0
SMALL
USER_CHARGES

@<TRIPOS>ATOM
      1 C1          1.7831    1.7800   -0.9734 C.3       1 <0>        -0.1534
      2 C2          2.0836    0.2875   -1.1257 C.3       1 <0>         0.0540
      3 O1          0.8595   -0.4299   -1.2954 O.3       1 <0>        -0.3122
      4 C3          0.9499   -1.7778   -1.4457 C.ar      1 <0>         0.1481
      5 C4          2.1930   -2.3951   -1.4241 C.ar      1 <0>        -0.2058
      6 C5          2.2883   -3.7626   -1.5763 C.ar      1 <0>        -0.0532
      7 C6          1.1343   -4.5251   -1.7521 C.ar      1 <0>        -0.0880
      8 C7         -0.1128   -3.9018   -1.7734 C.ar      1 <0>        -0.0464
      9 C8         -0.2014   -2.5345   -1.6149 C.ar      1 <0>        -0.1381
     10 C9          1.2330   -5.9951   -1.9165 C.2       1 <0>        -0.0433
     11 C10         1.8067   -6.7590   -0.9577 C.2       1 <0>        -0.1436
     12 S1          1.6824   -8.4121   -1.6130 S.3       1 <0>         0.1256
     13 C11         0.8703   -8.0462   -3.1462 C.ar      1 <0>         0.1315
     14 C12         0.7080   -6.6460   -3.1121 C.ar      1 <0>        -0.1697
     15 C13         0.0646   -6.0785   -4.2450 C.ar      1 <0>         0.1959
     16 N1         -0.3340   -6.8727   -5.2270 N.ar      1 <0>        -0.5362
     17 C14        -0.1533   -8.1801   -5.1899 C.ar      1 <0>         0.3334
     18 N2          0.4469   -8.7627   -4.1697 N.ar      1 <0>        -0.4864
     19 S2         -0.2003   -4.3392   -4.3416 S.3       1 <0>         0.0869
     20 C15        -1.0350   -4.1103   -5.9358 C.3       1 <0>        -0.1444
     21 H1         -1.9252   -4.7383   -5.9733 H         1 <0>         0.1212
     22 C16        -0.0857   -4.5030   -7.0696 C.3       1 <0>        -0.1411
     23 C17        -1.4329   -2.6652   -6.0916 C.2       1 <0>         0.5359
     24 O2         -0.8266   -1.8014   -5.4938 O.2       1 <0>        -0.4948
     25 N3         -2.4625   -2.3326   -6.8952 N.am      1 <0>        -0.6608
     26 C18        -2.7705   -0.9838   -7.1175 C.ar      1 <0>         0.1373
     27 C19        -1.7587   -0.0352   -7.1462 C.ar      1 <0>        -0.1001
     28 C20        -2.0651    1.2953   -7.3662 C.ar      1 <0>        -0.0227
     29 C21        -3.3796    1.6831   -7.5576 C.ar      1 <0>        -0.1077
     30 C22        -4.3924    0.7426   -7.5297 C.ar      1 <0>        -0.1110
     31 C23        -4.0926   -0.5930   -7.3160 C.ar      1 <0>         0.0854
     32 O3         -5.0876   -1.5198   -7.2944 O.3       1 <0>        -0.4914
     33 Cl1        -0.7981    2.4815   -7.4019 Cl        1 <0>        -0.0576
     34 H2          1.2714    2.1405   -1.8657 H         1 <0>         0.0675
     35 H3          1.1471    1.9355   -0.1020 H         1 <0>         0.0665
     36 H4          2.7169    2.3272   -0.8439 H         1 <0>         0.0790
     37 H5          2.7197    0.1320   -1.9971 H         1 <0>         0.0632
     38 H6          2.5953   -0.0730   -0.2334 H         1 <0>         0.0625
     39 H7          3.0865   -1.8039   -1.2882 H         1 <0>         0.1311
     40 H8          3.2558   -4.2423   -1.5597 H         1 <0>         0.1277
     41 H9         -1.0086   -4.4894   -1.9097 H         1 <0>         0.1314
     42 H10        -1.1674   -2.0516   -1.6265 H         1 <0>         0.1329
     43 H11         2.2376   -6.4424   -0.0194 H         1 <0>         0.2022
     44 H12        -0.4970   -8.7847   -6.0162 H         1 <0>         0.2114
     45 H13         0.8044   -3.8750   -7.0321 H         1 <0>         0.0693
     46 H14         0.2021   -5.5483   -6.9569 H         1 <0>         0.0889
     47 H15        -0.5873   -4.3655   -8.0275 H         1 <0>         0.0693
     48 H16        -2.9904   -3.0269   -7.3197 H         1 <0>         0.4196
     49 H17        -0.7322   -0.3355   -6.9963 H         1 <0>         0.1505
     50 H18        -3.6149    2.7232   -7.7288 H         1 <0>         0.1416
     51 H19        -5.4174    1.0485   -7.6791 H         1 <0>         0.1451
     52 H20        -5.4700   -1.6661   -6.4184 H         1 <0>         0.3930
@<TRIPOS>BOND
     1    1    2 1
     2    1   34 1
     3    1   35 1
     4    1   36 1
     5    2    3 1
     6    2   37 1
     7    2   38 1
     8    3    4 1
     9    4    9 ar
    10    4    5 ar
    11    5    6 ar
    12    5   39 1
    13    6    7 ar
    14    6   40 1
    15    7    8 ar
    16    7   10 1
    17    8    9 ar
    18    8   41 1
    19    9   42 1
    20   10   14 1
    21   10   11 2
    22   11   12 1
    23   11   43 1
    24   12   13 1
    25   13   18 ar
    26   13   14 ar
    27   14   15 ar
    28   15   16 ar
    29   15   19 1
    30   16   17 ar
    31   17   18 ar
    32   17   44 1
    33   19   20 1
    34   20   21 1
    35   20   22 1
    36   20   23 1
    37   22   45 1
    38   22   46 1
    39   22   47 1
    40   23   24 2
    41   23   25 am
    42   25   26 1
    43   25   48 1
    44   26   31 ar
    45   26   27 ar
    46   27   28 ar
    47   27   49 1
    48   28   29 ar
    49   28   33 1
    50   29   30 ar
    51   29   50 1
    52   30   31 ar
    53   30   51 1
    54   31   32 1
    55   32   52 1
@<TRIPOS>MOLECULE
ZINC04231462
   35    36     0     0     0
SMALL
USER_CHARGES
2-amino-3,5-dibromo-N-cinnamylideneamino-benzamide
@<TRIPOS>ATOM
      1 C1         11.8208    6.3416   -1.9606 C.ar      1 <0>        -0.1110
      2 C2         11.8530    4.9615   -1.8614 C.ar      1 <0>        -0.1222
      3 C3         10.6899    4.2556   -1.6371 C.ar      1 <0>        -0.1001
      4 C4          9.4759    4.9377   -1.5094 C.ar      1 <0>        -0.0711
      5 C5          9.4509    6.3318   -1.6161 C.ar      1 <0>        -0.1041
      6 C6         10.6233    7.0240   -1.8348 C.ar      1 <0>        -0.1207
      7 C7          8.2298    4.1917   -1.2698 C.2       1 <0>        -0.0548
      8 C8          7.0608    4.8531   -1.1472 C.2       1 <0>        -0.1218
      9 C9          5.8605    4.1345   -0.9164 C.2       1 <0>         0.1033
     10 N1          4.7315    4.7733   -0.7980 N.2       1 <0>        -0.2252
     11 N2          3.5455    4.0632   -0.5699 N.am      1 <0>        -0.5791
     12 C10         2.3773    4.7241   -0.4474 C.2       1 <0>         0.5941
     13 O1          2.3528    5.9372   -0.5347 O.2       1 <0>        -0.5037
     14 C11         1.1297    3.9772   -0.2075 C.ar      1 <0>        -0.2093
     15 C12         1.1680    2.5982    0.0181 C.ar      1 <0>         0.0061
     16 C13        -0.0020    1.9054    0.2422 C.ar      1 <0>        -0.1543
     17 C14        -1.2202    2.5682    0.2397 C.ar      1 <0>         0.0176
     18 C15        -1.2738    3.9306    0.0242 C.ar      1 <0>        -0.1747
     19 C16        -0.1039    4.6461   -0.2037 C.ar      1 <0>         0.3204
     20 N3         -0.1558    6.0170   -0.4262 N.pl3     1 <0>        -0.8392
     21 Br1        -2.9409    4.8232    0.0312 Br        1 <0>        -0.0238
     22 Br2         0.0531    0.0399    0.5471 Br        1 <0>        -0.0332
     23 H1         12.7351    6.8889   -2.1367 H         1 <0>         0.1238
     24 H2         12.7914    4.4361   -1.9602 H         1 <0>         0.1254
     25 H3         10.7166    3.1787   -1.5599 H         1 <0>         0.1267
     26 H4          8.5165    6.8652   -1.5234 H         1 <0>         0.1283
     27 H5         10.6063    8.1010   -1.9131 H         1 <0>         0.1255
     28 H6          8.2516    3.1147   -1.1922 H         1 <0>         0.1281
     29 H7          7.0389    5.9301   -1.2247 H         1 <0>         0.1325
     30 H8          5.8823    3.0575   -0.8388 H         1 <0>         0.1166
     31 H9          3.5651    3.0959   -0.5003 H         1 <0>         0.3863
     32 H10         2.1135    2.0762    0.0164 H         1 <0>         0.1387
     33 H11        -2.1321    2.0158    0.4119 H         1 <0>         0.1496
     34 H12         0.5543    6.4553   -0.9207 H         1 <0>         0.4209
     35 H13        -0.9022    6.5355   -0.0871 H         1 <0>         0.4048
@<TRIPOS>BOND
     1    1    6 ar
     2    1    2 ar
     3    1   23 1
     4    2    3 ar
     5    2   24 1
     6    3    4 ar
     7    3   25 1
     8    4    5 ar
     9    4    7 1
    10    5    6 ar
    11    5   26 1
    12    6   27 1
    13    7    8 2
    14    7   28 1
    15    8    9 1
    16    8   29 1
    17    9   10 2
    18    9   30 1
    19   10   11 1
    20   11   12 am
    21   11   31 1
    22   12   13 2
    23   12   14 1
    24   14   19 ar
    25   14   15 ar
    26   15   16 ar
    27   15   32 1
    28   16   17 ar
    29   16   22 1
    30   17   18 ar
    31   17   33 1
    32   18   19 ar
    33   18   21 1
    34   19   20 1
    35   20   34 1
    36   20   35 1
@<TRIPOS>MOLECULE
ZINC20877866
   41    44     0     0     0
SMALL
USER_CHARGES
5-[[5-(4-bromo-3-methyl-phenyl)-2-furyl]methylamino]-1,3-dihydrobenzimidazol-2-one
@<TRIPOS>ATOM
      1 C1          0.9590   -8.1578   -5.3896 C.3       1 <0>        -0.1266
      2 C2          1.0120   -8.3617   -3.8974 C.ar      1 <0>        -0.0504
      3 C3          0.8039   -7.2940   -3.0489 C.ar      1 <0>        -0.0976
      4 C4          0.8590   -7.4835   -1.6671 C.ar      1 <0>         0.0006
      5 C5          1.1129   -8.7562   -1.1524 C.ar      1 <0>        -0.0985
      6 C6          1.3131   -9.8168   -2.0110 C.ar      1 <0>        -0.0808
      7 C7          1.2633   -9.6212   -3.3809 C.ar      1 <0>        -0.0897
      8 Br1         1.5403  -11.0806   -4.5511 Br        1 <0>        -0.0406
      9 C8          0.6435   -6.3427   -0.7526 C.2       1 <0>         0.0345
     10 C9          0.6650   -6.3940    0.6058 C.2       1 <0>        -0.1859
     11 C10         0.4180   -5.0849    1.0654 C.2       1 <0>        -0.1776
     12 C11         0.2518   -4.3090   -0.0235 C.2       1 <0>        -0.0250
     13 O1          0.3918   -5.0717   -1.1202 O.3       1 <0>        -0.1623
     14 C12        -0.0366   -2.8300   -0.0128 C.3       1 <0>         0.2112
     15 N1          1.2255   -2.0862   -0.0208 N.pl3     1 <0>        -0.7550
     16 C13         1.2131   -0.6872   -0.0132 C.ar      1 <0>         0.2337
     17 C14         0.0021   -0.0041    0.0020 C.ar      1 <0>        -0.1899
     18 C15        -0.0166    1.3762    0.0096 C.ar      1 <0>        -0.0544
     19 C16         1.1753    2.0846    0.0020 C.ar      1 <0>         0.0204
     20 C17         2.3931    1.4018   -0.0137 C.ar      1 <0>         0.1308
     21 C18         2.4088    0.0156   -0.0213 C.ar      1 <0>        -0.1893
     22 N2          3.3966    2.3677   -0.0185 N.am      1 <0>        -0.6573
     23 H1          4.4534    2.0628   -0.0307 H         1 <0>         0.4626
     24 C19         2.8174    3.5828   -0.0062 C.2       1 <0>         0.6995
     25 O2          3.4140    4.6435   -0.0068 O.2       1 <0>        -0.5651
     26 N3          1.4780    3.4468    0.0063 N.am      1 <0>        -0.6551
     27 H2          0.6674    4.1903    0.0183 H         1 <0>         0.4620
     28 H3          0.7499   -7.1002   -5.6079 H         1 <0>         0.0735
     29 H4          0.1629   -8.7849   -5.8173 H         1 <0>         0.0811
     30 H5          1.9256   -8.4395   -5.8327 H         1 <0>         0.0810
     31 H6          0.6034   -6.3127   -3.4529 H         1 <0>         0.1372
     32 H7          1.1520   -8.9100   -0.0841 H         1 <0>         0.1384
     33 H8          1.5096  -10.8018   -1.6141 H         1 <0>         0.1410
     34 H9          0.8409   -7.2684    1.2148 H         1 <0>         0.1550
     35 H10         0.3688   -4.7646    2.0957 H         1 <0>         0.1556
     36 H11        -0.6243   -2.5646   -0.9040 H         1 <0>         0.0783
     37 H12        -0.6072   -2.5742    0.8922 H         1 <0>         0.0938
     38 H13         2.1829   -2.6277   -0.0328 H         1 <0>         0.4239
     39 H14        -0.9268   -0.5551    0.0076 H         1 <0>         0.1295
     40 H15        -0.9589    1.9039    0.0169 H         1 <0>         0.1301
     41 H16         3.3491   -0.5154   -0.0339 H         1 <0>         0.1275
@<TRIPOS>BOND
     1    1    2 1
     2    1   28 1
     3    1   29 1
     4    1   30 1
     5    2    7 ar
     6    2    3 ar
     7    3    4 ar
     8    3   31 1
     9    4    5 ar
    10    4    9 1
    11    5    6 ar
    12    5   32 1
    13    6    7 ar
    14    6   33 1
    15    7    8 1
    16    9   13 1
    17    9   10 2
    18   10   11 1
    19   10   34 1
    20   11   12 2
    21   11   35 1
    22   12   13 1
    23   12   14 1
    24   14   15 1
    25   14   36 1
    26   14   37 1
    27   15   16 1
    28   15   38 1
    29   16   21 ar
    30   16   17 ar
    31   17   18 ar
    32   17   39 1
    33   18   19 ar
    34   18   40 1
    35   19   26 1
    36   19   20 ar
    37   20   21 ar
    38   20   22 1
    39   21   41 1
    40   22   23 1
    41   22   24 am
    42   24   25 2
    43   24   26 am
    44   26   27 1
@<TRIPOS>MOLECULE
ZINC40683263
   46    50     0     0     0
SMALL
USER_CHARGES

@<TRIPOS>ATOM
      1 C1          0.3315    1.4644   -0.0017 C.3       1 <0>        -0.1107
      2 C2          0.4225   -0.0398   -0.0005 C.ar      1 <0>        -0.0408
      3 C3          0.5212   -0.7139   -1.1902 C.ar      1 <0>        -0.1118
      4 C4          0.6071   -2.0975   -1.2342 C.ar      1 <0>        -0.1037
      5 C5          0.5928   -2.8150   -0.0515 C.ar      1 <0>        -0.0649
      6 C6          0.4942   -2.1488    1.1438 C.ar      1 <0>        -0.1882
      7 C7          0.4107   -0.7400    1.2275 C.ar      1 <0>         0.1066
      8 N1          0.3250   -0.2320    2.4763 N.2       1 <0>        -0.5580
      9 C8          0.3238   -0.9913    3.5482 C.2       1 <0>         0.3726
     10 S1          0.4395   -2.6335    2.8522 S.3       1 <0>         0.1157
     11 N2          0.2427   -0.6164    4.8757 N.pl3     1 <0>        -0.5830
     12 C9          0.2573   -1.5851    5.8742 C.ar      1 <0>         0.3705
     13 C10         0.1701   -1.2187    7.2197 C.ar      1 <0>         0.0848
     14 C11         0.1893   -2.2295    8.1800 C.ar      1 <0>         0.3169
     15 N3          0.2890   -3.4944    7.7824 N.ar      1 <0>        -0.5355
     16 C12         0.3691   -3.7983    6.5029 C.ar      1 <0>         0.3263
     17 N4          0.3490   -2.8750    5.5628 N.ar      1 <0>        -0.5348
     18 O1          0.1078   -1.9270    9.4999 O.3       1 <0>        -0.2395
     19 C13         0.0262   -2.9533   10.3853 C.ar      1 <0>         0.0999
     20 C14        -1.2015   -3.3970   10.8228 C.ar      1 <0>        -0.1036
     21 C15        -1.2969   -4.4482   11.7303 C.ar      1 <0>        -0.1088
     22 C16        -0.1823   -5.0655   12.2100 C.ar      1 <0>        -0.0929
     23 C17         1.0895   -4.6426   11.7884 C.ar      1 <0>        -0.0443
     24 C18         1.1979   -3.5776   10.8601 C.ar      1 <0>        -0.0426
     25 C19         2.4693   -3.1601   10.4352 C.ar      1 <0>        -0.0992
     26 C20         3.5792   -3.7859   10.9146 C.ar      1 <0>        -0.1094
     27 C21         3.4734   -4.8375   11.8229 C.ar      1 <0>        -0.1124
     28 C22         2.2582   -5.2604   12.2666 C.ar      1 <0>        -0.1032
     29 N5          0.0665    0.1293    7.5943 N.pl3     1 <0>        -0.8607
     30 H1          1.3344    1.8891    0.0432 H         1 <0>         0.0708
     31 H2         -0.1637    1.7978   -0.9136 H         1 <0>         0.0665
     32 H3         -0.2418    1.7944    0.8646 H         1 <0>         0.0722
     33 H4          0.5321   -0.1549   -2.1141 H         1 <0>         0.1311
     34 H5          0.6839   -2.6094   -2.1820 H         1 <0>         0.1360
     35 H6          0.6585   -3.8928   -0.0690 H         1 <0>         0.1309
     36 H7          0.1755    0.3221    5.1114 H         1 <0>         0.4300
     37 H8          0.4495   -4.8362    6.2155 H         1 <0>         0.2083
     38 H9         -2.1011   -2.9236   10.4579 H         1 <0>         0.1295
     39 H10        -2.2709   -4.7792   12.0594 H         1 <0>         0.1326
     40 H11        -0.2756   -5.8791   12.9142 H         1 <0>         0.1334
     41 H12         2.5663   -2.3467    9.7313 H         1 <0>         0.1197
     42 H13         4.5560   -3.4630   10.5858 H         1 <0>         0.1241
     43 H14         4.3695   -5.3172   12.1880 H         1 <0>         0.1261
     44 H15         2.1915   -6.0760   12.9713 H         1 <0>         0.1314
     45 H16         0.0547    0.8218    6.9153 H         1 <0>         0.3982
     46 H17         0.0068    0.3688    8.5324 H         1 <0>         0.4137
@<TRIPOS>BOND
     1    1    2 1
     2    1   30 1
     3    1   31 1
     4    1   32 1
     5    2    7 ar
     6    2    3 ar
     7    3    4 ar
     8    3   33 1
     9    4    5 ar
    10    4   34 1
    11    5    6 ar
    12    5   35 1
    13    6   10 1
    14    6    7 ar
    15    7    8 1
    16    8    9 2
    17    9   10 1
    18    9   11 1
    19   11   12 1
    20   11   36 1
    21   12   17 ar
    22   12   13 ar
    23   13   14 ar
    24   13   29 1
    25   14   15 ar
    26   14   18 1
    27   15   16 ar
    28   16   17 ar
    29   16   37 1
    30   18   19 1
    31   19   24 ar
    32   19   20 ar
    33   20   21 ar
    34   20   38 1
    35   21   22 ar
    36   21   39 1
    37   22   23 ar
    38   22   40 1
    39   23   28 ar
    40   23   24 ar
    41   24   25 ar
    42   25   26 ar
    43   25   41 1
    44   26   27 ar
    45   26   42 1
    46   27   28 ar
    47   27   43 1
    48   28   44 1
    49   29   45 1
    50   29   46 1
@<TRIPOS>MOLECULE
ZINC40797281
   38    40     0     0     0
SMALL
USER_CHARGES

@<TRIPOS>ATOM
      1 C1          3.2571   -1.1114    1.1910 C.3       1 <0>        -0.1213
      2 C2          1.8895   -1.2504    0.5734 C.ar      1 <0>        -0.0595
      3 C3          1.7352   -1.9392   -0.6143 C.ar      1 <0>        -0.1039
      4 C4          0.4761   -2.0669   -1.1824 C.ar      1 <0>         0.1069
      5 C5         -0.6260   -1.5022   -0.5563 C.ar      1 <0>        -0.1083
      6 C6         -0.4675   -0.8144    0.6308 C.ar      1 <0>        -0.0915
      7 C7          0.7886   -0.6930    1.1989 C.ar      1 <0>        -0.0354
      8 Cl1         0.9841    0.1654    2.6951 Cl        1 <0>        -0.0595
      9 O1          0.3223   -2.7437   -2.3509 O.3       1 <0>        -0.2448
     10 C8          0.4417   -4.0948   -2.3248 C.ar      1 <0>         0.3105
     11 C9          0.4121   -4.8309   -3.5087 C.ar      1 <0>         0.0657
     12 C10         0.5392   -6.2197   -3.4255 C.ar      1 <0>         0.3852
     13 N1          0.6827   -6.7827   -2.2285 N.ar      1 <0>        -0.5387
     14 C11         0.7055   -6.0492   -1.1342 C.ar      1 <0>         0.3187
     15 N2          0.5943   -4.7366   -1.1705 N.ar      1 <0>        -0.5497
     16 N3          0.5158   -7.0011   -4.5751 N.pl3     1 <0>        -0.6506
     17 C12         0.5339   -8.3947   -4.4732 C.ar      1 <0>         0.1710
     18 C13         1.1559   -9.1565   -5.4547 C.ar      1 <0>        -0.1398
     19 C14         1.1726  -10.5333   -5.3513 C.ar      1 <0>        -0.0902
     20 C15         0.5712  -11.1548   -4.2721 C.ar      1 <0>        -0.1125
     21 C16        -0.0495  -10.3997   -3.2929 C.ar      1 <0>        -0.0687
     22 C17        -0.0648   -9.0209   -3.3877 C.ar      1 <0>        -0.0910
     23 Br1        -0.8715  -11.2544   -1.8199 Br        1 <0>        -0.0458
     24 N4          0.2583   -4.1941   -4.7497 N.pl3     1 <0>        -0.8642
     25 H1          3.4404   -1.9516    1.8608 H         1 <0>         0.0801
     26 H2          4.0118   -1.1024    0.4046 H         1 <0>         0.0723
     27 H3          3.3083   -0.1798    1.7545 H         1 <0>         0.0770
     28 H4          2.5943   -2.3777   -1.1002 H         1 <0>         0.1333
     29 H5         -1.6070   -1.6002   -0.9973 H         1 <0>         0.1387
     30 H6         -1.3250   -0.3745    1.1182 H         1 <0>         0.1424
     31 H7          0.8235   -6.5382   -0.1786 H         1 <0>         0.2031
     32 H8          0.4869   -6.5789   -5.4479 H         1 <0>         0.4172
     33 H9          1.6255   -8.6721   -6.2981 H         1 <0>         0.1297
     34 H10         1.6557  -11.1257   -6.1143 H         1 <0>         0.1356
     35 H11         0.5858  -12.2318   -4.1936 H         1 <0>         0.1332
     36 H12        -0.5455   -8.4314   -2.6210 H         1 <0>         0.1489
     37 H13         0.1708   -3.2290   -4.7921 H         1 <0>         0.4105
     38 H14         0.2394   -4.7191   -5.5651 H         1 <0>         0.3957
@<TRIPOS>BOND
     1    1    2 1
     2    1   25 1
     3    1   26 1
     4    1   27 1
     5    2    7 ar
     6    2    3 ar
     7    3    4 ar
     8    3   28 1
     9    4    5 ar
    10    4    9 1
    11    5    6 ar
    12    5   29 1
    13    6    7 ar
    14    6   30 1
    15    7    8 1
    16    9   10 1
    17   10   15 ar
    18   10   11 ar
    19   11   12 ar
    20   11   24 1
    21   12   13 ar
    22   12   16 1
    23   13   14 ar
    24   14   15 ar
    25   14   31 1
    26   16   17 1
    27   16   32 1
    28   17   22 ar
    29   17   18 ar
    30   18   19 ar
    31   18   33 1
    32   19   20 ar
    33   19   34 1
    34   20   21 ar
    35   20   35 1
    36   21   22 ar
    37   21   23 1
    38   22   36 1
    39   24   37 1
    40   24   38 1
@<TRIPOS>MOLECULE
ZINC54550994
   63    66     0     0     0
SMALL
USER_CHARGES

@<TRIPOS>ATOM
      1 C1         -3.6865   -1.8579   -1.9097 C.3       1 <0>        -0.1166
      2 C2         -2.3738   -2.2225   -1.2655 C.ar      1 <0>        -0.0825
      3 C3         -1.1836   -1.8786   -1.8803 C.ar      1 <0>        -0.1225
      4 C4          0.0230   -2.2116   -1.2930 C.ar      1 <0>        -0.1171
      5 C5          0.0433   -2.8888   -0.0893 C.ar      1 <0>        -0.1284
      6 C6         -1.1501   -3.2353    0.5310 C.ar      1 <0>         0.1741
      7 C7         -2.3607   -2.8946   -0.0594 C.ar      1 <0>        -0.0924
      8 C8         -3.6581   -3.2634    0.6128 C.3       1 <0>        -0.1075
      9 N1         -1.1332   -3.9201    1.7482 N.pl3     1 <0>        -0.6715
     10 C9         -1.1203   -5.3894    1.7797 C.3       1 <0>         0.1330
     11 C10         0.0854   -5.8513    2.6075 C.3       1 <0>         0.1360
     12 N2          0.0911   -5.1155    3.8797 N.pl3     1 <0>        -0.6489
     13 C11         0.0782   -3.6463    3.8482 C.3       1 <0>         0.1352
     14 C12        -1.1217   -3.1843    3.0203 C.3       1 <0>         0.1322
     15 C13         0.1080   -5.7969    5.0908 C.ar      1 <0>         0.3654
     16 C14         1.3172   -6.1988    5.6613 C.ar      1 <0>         0.0606
     17 C15         1.2773   -6.8796    6.8791 C.ar      1 <0>         0.3885
     18 N3          0.0970   -7.1181    7.4461 N.ar      1 <0>        -0.5434
     19 C16        -1.0216   -6.7214    6.8740 C.ar      1 <0>         0.2892
     20 N4         -1.0279   -6.0716    5.7275 N.ar      1 <0>        -0.5315
     21 N5          2.4520   -7.3023    7.4900 N.pl3     1 <0>        -0.7189
     22 C17         2.3970   -8.0160    8.7682 C.3       1 <0>         0.1648
     23 C18         2.2640   -6.9870    9.9095 C.3       1 <0>        -0.1206
     24 C19         1.7054   -7.6852   11.1197 C.3       1 <0>        -0.1149
     25 C20         2.8075   -8.1774   12.0772 C.3       1 <0>        -0.1190
     26 C21         4.0069   -8.8005   11.3377 C.3       1 <0>        -0.1207
     27 C22         3.5836   -9.6805   10.1929 C.3       1 <0>        -0.1097
     28 C23         3.5898   -8.8395    8.8999 C.3       1 <0>        -0.1311
     29 N6          2.5403   -5.9259    5.0269 N.pl3     1 <0>        -0.8651
     30 H1         -3.9991   -0.8722   -1.5649 H         1 <0>         0.0696
     31 H2         -3.5678   -1.8429   -2.9931 H         1 <0>         0.0656
     32 H3         -4.4421   -2.5947   -1.6371 H         1 <0>         0.0679
     33 H4         -1.1967   -1.3491   -2.8215 H         1 <0>         0.1198
     34 H5          0.9506   -1.9422   -1.7761 H         1 <0>         0.1199
     35 H6          0.9861   -3.1490    0.3688 H         1 <0>         0.1179
     36 H7         -3.9748   -4.2501    0.2747 H         1 <0>         0.0650
     37 H8         -3.5161   -3.2779    1.6934 H         1 <0>         0.0686
     38 H9         -4.4217   -2.5291    0.3565 H         1 <0>         0.0626
     39 H10        -2.0398   -5.7536    2.2379 H         1 <0>         0.0555
     40 H11        -1.0366   -5.7763    0.7641 H         1 <0>         0.0714
     41 H12         0.0064   -6.9206    2.8037 H         1 <0>         0.0701
     42 H13         1.0054   -5.6441    2.0609 H         1 <0>         0.0542
     43 H14        -0.0055   -3.2593    4.8638 H         1 <0>         0.0709
     44 H15         0.9978   -3.2821    3.3900 H         1 <0>         0.0537
     45 H16        -1.0390   -2.1154    2.8239 H         1 <0>         0.0714
     46 H17        -2.0414   -3.3879    3.5690 H         1 <0>         0.0558
     47 H18        -1.9621   -6.9319    7.3614 H         1 <0>         0.1898
     48 H19         3.3081   -7.1248    7.0700 H         1 <0>         0.3995
     49 H20         1.5194   -8.6625    8.7737 H         1 <0>         0.0867
     50 H21         3.2444   -6.5732   10.1454 H         1 <0>         0.0611
     51 H22         1.5895   -6.1870    9.6044 H         1 <0>         0.0662
     52 H23         1.0547   -6.9947   11.6562 H         1 <0>         0.0598
     53 H24         1.1149   -8.5408   10.7921 H         1 <0>         0.0638
     54 H25         3.1601   -7.3339   12.6707 H         1 <0>         0.0576
     55 H26         2.3824   -8.9235   12.7487 H         1 <0>         0.0593
     56 H27         4.6382   -7.9999   10.9524 H         1 <0>         0.0599
     57 H28         4.5865   -9.3951   12.0439 H         1 <0>         0.0595
     58 H29         4.2817  -10.5116   10.0924 H         1 <0>         0.0672
     59 H30         2.5793  -10.0623   10.3764 H         1 <0>         0.0702
     60 H31         3.6521   -9.5101    8.0429 H         1 <0>         0.0650
     61 H32         4.4669   -8.1923    8.9039 H         1 <0>         0.0640
     62 H33         2.5603   -5.3752    4.2286 H         1 <0>         0.4031
     63 H34         3.3649   -6.2881    5.3871 H         1 <0>         0.3907
@<TRIPOS>BOND
     1    1    2 1
     2    1   30 1
     3    1   31 1
     4    1   32 1
     5    2    7 ar
     6    2    3 ar
     7    3    4 ar
     8    3   33 1
     9    4    5 ar
    10    4   34 1
    11    5    6 ar
    12    5   35 1
    13    6    7 ar
    14    6    9 1
    15    7    8 1
    16    8   36 1
    17    8   37 1
    18    8   38 1
    19    9   14 1
    20    9   10 1
    21   10   11 1
    22   10   39 1
    23   10   40 1
    24   11   12 1
    25   11   41 1
    26   11   42 1
    27   12   13 1
    28   12   15 1
    29   13   14 1
    30   13   43 1
    31   13   44 1
    32   14   45 1
    33   14   46 1
    34   15   20 ar
    35   15   16 ar
    36   16   17 ar
    37   16   29 1
    38   17   18 ar
    39   17   21 1
    40   18   19 ar
    41   19   20 ar
    42   19   47 1
    43   21   22 1
    44   21   48 1
    45   22   28 1
    46   22   23 1
    47   22   49 1
    48   23   24 1
    49   23   50 1
    50   23   51 1
    51   24   25 1
    52   24   52 1
    53   24   53 1
    54   25   26 1
    55   25   54 1
    56   25   55 1
    57   26   27 1
    58   26   56 1
    59   26   57 1
    60   27   28 1
    61   27   58 1
    62   27   59 1
    63   28   60 1
    64   28   61 1
    65   29   62 1
    66   29   63 1
@<TRIPOS>MOLECULE
ZINC08832466
   51    54     0     0     0
SMALL
USER_CHARGES
2-[3-[5-(4-chlorophenyl)-2-furyl]prop-2-enoylamino]-6-methyl-4,5,6,7-tetrahydrobenzothiophene-3-carboxamide
@<TRIPOS>ATOM
      1 C1         -0.0187    1.5258    0.0104 C.3       1 <0>        -0.1481
      2 C2          0.0021   -0.0041    0.0020 C.3       1 <0>        -0.0859
      3 H1          0.5076   -0.3577   -0.8966 H         1 <0>         0.0758
      4 C3          0.7423   -0.5142    1.2418 C.3       1 <0>        -0.1144
      5 C4          0.9843   -2.0198    1.1205 C.3       1 <0>        -0.0610
      6 C5         -0.3402   -2.7059    0.8093 C.2       1 <0>        -0.0651
      7 C6         -1.3897   -2.0059    0.3265 C.2       1 <0>        -0.2100
      8 S1         -2.6781   -3.2031    0.1245 S.3       1 <0>         0.2333
      9 C7         -1.8366   -4.6151    0.6725 C.2       1 <0>         0.0748
     10 C8         -0.5787   -4.1266    0.9991 C.2       1 <0>        -0.2311
     11 C9          0.4698   -5.0112    1.5156 C.2       1 <0>         0.5850
     12 O1          0.5776   -5.1919    2.7144 O.2       1 <0>        -0.5338
     13 N1          1.3146   -5.6243    0.6630 N.am      1 <0>        -0.8481
     14 N2         -2.3051   -5.9149    0.7632 N.am      1 <0>        -0.6168
     15 C10        -3.5696   -6.2026    0.3963 C.2       1 <0>         0.5508
     16 O2         -4.3004   -5.3192   -0.0150 O.2       1 <0>        -0.5070
     17 C11        -4.0478   -7.5295    0.4889 C.2       1 <0>        -0.2265
     18 C12        -5.3225   -7.8195    0.1191 C.2       1 <0>         0.0423
     19 C13        -5.8006   -9.1462    0.2117 C.2       1 <0>        -0.0184
     20 C14        -7.0712   -9.5749   -0.1244 C.2       1 <0>        -0.1383
     21 C15        -7.1107  -10.9504    0.1174 C.2       1 <0>        -0.1919
     22 C16        -5.8722  -11.3097    0.5991 C.2       1 <0>         0.0566
     23 O3         -5.0974  -10.2118    0.6490 O.3       1 <0>        -0.1552
     24 C17        -5.4636  -12.6715    0.9951 C.ar      1 <0>        -0.0230
     25 C18        -6.3694  -13.7310    0.9009 C.ar      1 <0>        -0.0792
     26 C19        -5.9800  -15.0017    1.2685 C.ar      1 <0>        -0.1058
     27 C20        -4.6972  -15.2270    1.7398 C.ar      1 <0>        -0.0250
     28 C21        -3.7959  -14.1801    1.8402 C.ar      1 <0>        -0.1068
     29 C22        -4.1712  -12.9055    1.4713 C.ar      1 <0>        -0.0852
     30 Cl1        -4.2171  -16.8285    2.2073 Cl        1 <0>        -0.0594
     31 C23        -1.4373   -0.5385    0.0305 C.3       1 <0>        -0.0305
     32 H2          1.0039    1.9031    0.0027 H         1 <0>         0.0583
     33 H3         -0.5459    1.8868   -0.8726 H         1 <0>         0.0577
     34 H4         -0.5289    1.8773    0.9072 H         1 <0>         0.0572
     35 H5          1.6991    0.0004    1.3296 H         1 <0>         0.0706
     36 H6          0.1423   -0.3143    2.1296 H         1 <0>         0.0675
     37 H7          1.6935   -2.2122    0.3154 H         1 <0>         0.0762
     38 H8          1.3847   -2.4024    2.0593 H         1 <0>         0.0753
     39 H9          1.2287   -5.4803   -0.2924 H         1 <0>         0.4035
     40 H10         2.0085   -6.2097    1.0048 H         1 <0>         0.4030
     41 H11        -1.7231   -6.6184    1.0908 H         1 <0>         0.4201
     42 H12        -3.3999   -8.3128    0.8537 H         1 <0>         0.1361
     43 H13        -5.9704   -7.0362   -0.2456 H         1 <0>         0.1674
     44 H14        -7.8775   -8.9644   -0.5032 H         1 <0>         0.1652
     45 H15        -7.9541  -11.6064   -0.0395 H         1 <0>         0.1613
     46 H16        -7.3713  -13.5558    0.5378 H         1 <0>         0.1413
     47 H17        -6.6780  -15.8223    1.1926 H         1 <0>         0.1434
     48 H18        -2.7971  -14.3623    2.2084 H         1 <0>         0.1412
     49 H19        -3.4677  -12.0899    1.5507 H         1 <0>         0.1387
     50 H20        -2.0042   -0.0254    0.8073 H         1 <0>         0.0832
     51 H21        -1.9091   -0.3745   -0.9382 H         1 <0>         0.0810
@<TRIPOS>BOND
     1    1    2 1
     2    1   32 1
     3    1   33 1
     4    1   34 1
     5    2    3 1
     6    2   31 1
     7    2    4 1
     8    4    5 1
     9    4   35 1
    10    4   36 1
    11    5    6 1
    12    5   37 1
    13    5   38 1
    14    6   10 1
    15    6    7 2
    16    7    8 1
    17    7   31 1
    18    8    9 1
    19    9   10 2
    20    9   14 1
    21   10   11 1
    22   11   12 2
    23   11   13 am
    24   13   39 1
    25   13   40 1
    26   14   15 am
    27   14   41 1
    28   15   16 2
    29   15   17 1
    30   17   18 2
    31   17   42 1
    32   18   19 1
    33   18   43 1
    34   19   23 1
    35   19   20 2
    36   20   21 1
    37   20   44 1
    38   21   22 2
    39   21   45 1
    40   22   23 1
    41   22   24 1
    42   24   29 ar
    43   24   25 ar
    44   25   26 ar
    45   25   46 1
    46   26   27 ar
    47   26   47 1
    48   27   28 ar
    49   27   30 1
    50   28   29 ar
    51   28   48 1
    52   29   49 1
    53   31   50 1
    54   31   51 1
@<TRIPOS>MOLECULE
ZINC12250433
   50    54     0     0     0
SMALL
USER_CHARGES
3-amino-6-(4-chlorophenyl)-4-(2-furyl)-N-(o-tolyl)thieno[5,4-b]pyridine-2-carboxamide
@<TRIPOS>ATOM
      1 C1         -1.7456   -0.1514   -0.4584 C.3       1 <0>        -0.1126
      2 C2         -1.5495    1.0973   -1.2791 C.ar      1 <0>        -0.1154
      3 C3         -2.6416    1.7488   -1.8184 C.ar      1 <0>        -0.1016
      4 C4         -2.4626    2.8947   -2.5710 C.ar      1 <0>        -0.1330
      5 C5         -1.1903    3.3928   -2.7861 C.ar      1 <0>        -0.1070
      6 C6         -0.0947    2.7492   -2.2454 C.ar      1 <0>        -0.1239
      7 C7         -0.2707    1.5945   -1.4935 C.ar      1 <0>         0.1474
      8 N1          0.8370    0.9373   -0.9491 N.am      1 <0>        -0.6664
      9 C8          1.9439    1.6358   -0.6273 C.2       1 <0>         0.6204
     10 O1          1.9992    2.8303   -0.8595 O.2       1 <0>        -0.5274
     11 C9          3.0419    0.9813   -0.0196 C.2       1 <0>        -0.3342
     12 C10         4.2526    1.5161    0.3752 C.2       1 <0>         0.3051
     13 C11         5.2139    0.6771    0.9692 C.ar      1 <0>        -0.1765
     14 C12         6.5177    1.0272    1.4493 C.ar      1 <0>         0.1024
     15 C13         7.3174    0.0353    2.0010 C.ar      1 <0>        -0.1553
     16 C14         6.8506   -1.2753    2.0826 C.ar      1 <0>         0.2349
     17 N2          5.6391   -1.5852    1.6336 N.ar      1 <0>        -0.4423
     18 C15         4.8466   -0.6814    1.1034 C.ar      1 <0>         0.1433
     19 S1          3.2075   -0.7398    0.4188 S.3       1 <0>         0.1284
     20 C16         7.7100   -2.3288    2.6739 C.ar      1 <0>        -0.0572
     21 C17         8.9844   -2.0112    3.1416 C.ar      1 <0>        -0.0783
     22 C18         9.7782   -2.9944    3.6954 C.ar      1 <0>        -0.1136
     23 C19         9.3151   -4.2967    3.7778 C.ar      1 <0>        -0.0159
     24 C20         8.0522   -4.6184    3.3100 C.ar      1 <0>        -0.1152
     25 C21         7.2486   -3.6417    2.7589 C.ar      1 <0>        -0.0568
     26 Cl1        10.3215   -5.5304    4.4697 Cl        1 <0>        -0.0602
     27 C22         7.0016    2.4163    1.3592 C.2       1 <0>        -0.0171
     28 C23         8.1860    2.8171    0.8189 C.2       1 <0>        -0.1585
     29 C24         8.2337    4.2183    0.9418 C.2       1 <0>        -0.2116
     30 C25         7.0934    4.6011    1.5519 C.2       1 <0>        -0.0211
     31 O2          6.3521    3.5106    1.8023 O.3       1 <0>        -0.1583
     32 N3          4.5168    2.8672    0.1917 N.pl3     1 <0>        -0.8262
     33 H1         -1.8724    0.1190    0.5899 H         1 <0>         0.0731
     34 H2         -2.6329   -0.6798   -0.8073 H         1 <0>         0.0725
     35 H3         -0.8734   -0.7965   -0.5643 H         1 <0>         0.0586
     36 H4         -3.6364    1.3629   -1.6517 H         1 <0>         0.1258
     37 H5         -3.3181    3.4022   -2.9916 H         1 <0>         0.1226
     38 H6         -1.0539    4.2883   -3.3742 H         1 <0>         0.1245
     39 H7          0.8981    3.1411   -2.4101 H         1 <0>         0.1474
     40 H8          0.8103   -0.0218   -0.8067 H         1 <0>         0.4079
     41 H9          8.3032    0.2799    2.3679 H         1 <0>         0.1550
     42 H10         9.3481   -0.9965    3.0739 H         1 <0>         0.1393
     43 H11        10.7641   -2.7487    4.0614 H         1 <0>         0.1417
     44 H12         7.6958   -5.6357    3.3763 H         1 <0>         0.1415
     45 H13         6.2640   -3.8938    2.3936 H         1 <0>         0.1483
     46 H14         8.9412    2.1826    0.3790 H         1 <0>         0.1582
     47 H15         9.0340    4.8646    0.6129 H         1 <0>         0.1591
     48 H16         6.8216    5.6170    1.7978 H         1 <0>         0.2124
     49 H17         3.7865    3.5050    0.1657 H         1 <0>         0.4182
     50 H18         5.4317    3.1730    0.0897 H         1 <0>         0.3979
@<TRIPOS>BOND
     1    1    2 1
     2    1   33 1
     3    1   34 1
     4    1   35 1
     5    2    7 ar
     6    2    3 ar
     7    3    4 ar
     8    3   36 1
     9    4    5 ar
    10    4   37 1
    11    5    6 ar
    12    5   38 1
    13    6    7 ar
    14    6   39 1
    15    7    8 1
    16    8    9 am
    17    8   40 1
    18    9   10 2
    19    9   11 1
    20   11   19 1
    21   11   12 2
    22   12   13 1
    23   12   32 1
    24   13   18 ar
    25   13   14 ar
    26   14   15 ar
    27   14   27 1
    28   15   16 ar
    29   15   41 1
    30   16   17 ar
    31   16   20 1
    32   17   18 ar
    33   18   19 1
    34   20   25 ar
    35   20   21 ar
    36   21   22 ar
    37   21   42 1
    38   22   23 ar
    39   22   43 1
    40   23   24 ar
    41   23   26 1
    42   24   25 ar
    43   24   44 1
    44   25   45 1
    45   27   31 1
    46   27   28 2
    47   28   29 1
    48   28   46 1
    49   29   30 2
    50   29   47 1
    51   30   31 1
    52   30   48 1
    53   32   49 1
    54   32   50 1
@<TRIPOS>MOLECULE
ZINC16807294
   48    51     0     0     0
SMALL
USER_CHARGES
2-amino-1-(4-bromobenzoyl)-N-(4-methoxyphenyl)indole-3-carboxamide
@<TRIPOS>ATOM
      1 C1         -0.3814   -4.8940   -0.3952 C.3       1 <0>         0.0268
      2 O1          0.6807   -4.0929    0.1267 O.3       1 <0>        -0.3174
      3 C2          0.5060   -2.7446    0.1029 C.ar      1 <0>         0.1129
      4 C3          1.4979   -1.9084    0.5940 C.ar      1 <0>        -0.1306
      5 C4          1.3210   -0.5390    0.5706 C.ar      1 <0>        -0.0799
      6 C5          0.1502    0.0008    0.0550 C.ar      1 <0>         0.1092
      7 C6         -0.8442   -0.8372   -0.4319 C.ar      1 <0>        -0.1058
      8 C7         -0.6637   -2.2061   -0.4128 C.ar      1 <0>        -0.1890
      9 N1         -0.0301    1.3895    0.0314 N.am      1 <0>        -0.6648
     10 C8          1.0287    2.2036   -0.1490 C.2       1 <0>         0.6048
     11 O2          2.1264    1.7317   -0.3846 O.2       1 <0>        -0.5113
     12 C9          0.8597    3.6524   -0.0620 C.2       1 <0>        -0.3075
     13 C10         0.9819    4.4861    1.1507 C.ar      1 <0>        -0.0196
     14 C11         1.2687    4.2057    2.4839 C.ar      1 <0>        -0.0890
     15 C12         1.3103    5.2317    3.4042 C.ar      1 <0>        -0.1167
     16 C13         1.0680    6.5370    3.0057 C.ar      1 <0>        -0.1064
     17 C14         0.7913    6.8282    1.6859 C.ar      1 <0>        -0.1102
     18 C15         0.7402    5.8069    0.7456 C.ar      1 <0>         0.0911
     19 N2          0.4769    5.7929   -0.6175 N.am      1 <0>        -0.5125
     20 C16         0.5469    4.5159   -1.1005 C.2       1 <0>         0.4372
     21 N3          0.3404    4.1468   -2.4078 N.pl3     1 <0>        -0.8415
     22 C17         0.1933    6.8824   -1.3586 C.2       1 <0>         0.5904
     23 O3          1.0942    7.5569   -1.8166 O.2       1 <0>        -0.4151
     24 C18        -1.2122    7.2563   -1.6139 C.ar      1 <0>        -0.1564
     25 C19        -2.2488    6.5458   -1.0043 C.ar      1 <0>        -0.0512
     26 C20        -3.5590    6.9039   -1.2419 C.ar      1 <0>        -0.1005
     27 C21        -3.8485    7.9580   -2.0923 C.ar      1 <0>        -0.0517
     28 C22        -2.8254    8.6625   -2.7047 C.ar      1 <0>        -0.1014
     29 C23        -1.5109    8.3183   -2.4705 C.ar      1 <0>        -0.0430
     30 Br1        -5.6483    8.4377   -2.4182 Br        1 <0>        -0.0283
     31 H1         -0.1141   -5.9478   -0.3165 H         1 <0>         0.1004
     32 H2         -1.2915   -4.7065    0.1745 H         1 <0>         0.0555
     33 H3         -0.5486   -4.6387   -1.4416 H         1 <0>         0.0551
     34 H4          2.4085   -2.3283    0.9950 H         1 <0>         0.1350
     35 H5          2.0933    0.1120    0.9530 H         1 <0>         0.1425
     36 H6         -1.7569   -0.4182   -0.8294 H         1 <0>         0.1277
     37 H7         -1.4352   -2.8578   -0.7955 H         1 <0>         0.1316
     38 H8         -0.9177    1.7653    0.1409 H         1 <0>         0.4106
     39 H9          1.4573    3.1891    2.7959 H         1 <0>         0.1259
     40 H10         1.5328    5.0176    4.4391 H         1 <0>         0.1295
     41 H11         1.1028    7.3341    3.7337 H         1 <0>         0.1311
     42 H12         0.6020    7.8483    1.3860 H         1 <0>         0.1192
     43 H13         0.3373    3.2081   -2.6520 H         1 <0>         0.4255
     44 H14         0.1978    4.8250   -3.0864 H         1 <0>         0.4044
     45 H15        -2.0244    5.7208   -0.3444 H         1 <0>         0.1417
     46 H16        -4.3612    6.3587   -0.7672 H         1 <0>         0.1457
     47 H17        -3.0577    9.4835   -3.3668 H         1 <0>         0.1473
     48 H18        -0.7140    8.8690   -2.9480 H         1 <0>         0.1487
@<TRIPOS>BOND
     1    1    2 1
     2    1   31 1
     3    1   32 1
     4    1   33 1
     5    2    3 1
     6    3    8 ar
     7    3    4 ar
     8    4    5 ar
     9    4   34 1
    10    5    6 ar
    11    5   35 1
    12    6    7 ar
    13    6    9 1
    14    7    8 ar
    15    7   36 1
    16    8   37 1
    17    9   10 am
    18    9   38 1
    19   10   11 2
    20   10   12 1
    21   12   20 2
    22   12   13 1
    23   13   18 ar
    24   13   14 ar
    25   14   15 ar
    26   14   39 1
    27   15   16 ar
    28   15   40 1
    29   16   17 ar
    30   16   41 1
    31   17   18 ar
    32   17   42 1
    33   18   19 1
    34   19   20 1
    35   19   22 am
    36   20   21 1
    37   21   43 1
    38   21   44 1
    39   22   23 2
    40   22   24 1
    41   24   29 ar
    42   24   25 ar
    43   25   26 ar
    44   25   45 1
    45   26   27 ar
    46   26   46 1
    47   27   28 ar
    48   27   30 1
    49   28   29 ar
    50   28   47 1
    51   29   48 1
@<TRIPOS>MOLECULE
ZINC37376737
   54    58     0     0     0
SMALL
USER_CHARGES

@<TRIPOS>ATOM
      1 C1          2.1725    2.1606    0.1066 C.3       1 <0>         0.0231
      2 O1          1.8571    0.7698    0.1966 O.3       1 <0>        -0.3117
      3 C2          2.0993    0.0095   -0.9040 C.ar      1 <0>         0.1344
      4 C3          2.6350    0.5909   -2.0442 C.ar      1 <0>        -0.1856
      5 C4          2.8812   -0.1806   -3.1623 C.ar      1 <0>        -0.0542
      6 C5          2.5930   -1.5390   -3.1455 C.ar      1 <0>         0.1054
      7 C6          2.0572   -2.1204   -2.0036 C.ar      1 <0>        -0.1029
      8 C7          1.8160   -1.3486   -0.8846 C.ar      1 <0>        -0.1255
      9 N1          2.8422   -2.3226   -4.2801 N.pl3     1 <0>        -0.3015
     10 C8          3.2489   -3.6067   -4.2594 C.2       1 <0>         0.4521
     11 C9          3.3816   -4.0246   -5.5780 C.ar      1 <0>        -0.3870
     12 C10         3.7606   -5.2209   -6.2274 C.ar      1 <0>         0.3738
     13 N2          3.7673   -5.2408   -7.5545 N.ar      1 <0>        -0.5854
     14 C11         3.4309   -4.1783   -8.2794 C.ar      1 <0>         0.6156
     15 N3          3.0661   -3.0254   -7.7568 N.ar      1 <0>        -0.5737
     16 C12         3.0163   -2.8706   -6.4197 C.ar      1 <0>         0.3685
     17 N4          2.6998   -1.8893   -5.6032 N.2       1 <0>        -0.3087
     18 N5          3.4665   -4.2894   -9.6578 N.pl3     1 <0>        -0.6843
     19 C13         3.1036   -3.1429  -10.4946 C.3       1 <0>         0.1565
     20 C14         1.5825   -3.1369  -10.7519 C.3       1 <0>        -0.1333
     21 C15         1.4464   -2.6428  -12.2135 C.3       1 <0>        -0.1251
     22 C16         2.6490   -3.3200  -12.9166 C.3       1 <0>        -0.1244
     23 C17         3.7817   -3.2594  -11.8710 C.3       1 <0>        -0.1331
     24 C18         4.1407   -6.4202   -5.4483 C.ar      1 <0>        -0.0565
     25 C19         3.3531   -6.8353   -4.3733 C.ar      1 <0>        -0.0781
     26 C20         3.7108   -7.9535   -3.6504 C.ar      1 <0>        -0.1401
     27 C21         4.8506   -8.6657   -3.9892 C.ar      1 <0>         0.1286
     28 C22         5.6374   -8.2576   -5.0561 C.ar      1 <0>        -0.0750
     29 C23         5.2845   -7.1429   -5.7894 C.ar      1 <0>        -0.0335
     30 Cl1         7.0642   -9.1539   -5.4738 Cl        1 <0>        -0.0347
     31 F1          5.1967   -9.7608   -3.2775 F         1 <0>        -0.1185
     32 N6          3.4902   -4.3697   -3.1320 N.pl3     1 <0>        -0.8342
     33 H1          3.2355    2.2793   -0.1032 H         1 <0>         0.0592
     34 H2          1.5909    2.6138   -0.6962 H         1 <0>         0.0598
     35 H3          1.9316    2.6497    1.0505 H         1 <0>         0.1051
     36 H4          2.8591    1.6473   -2.0572 H         1 <0>         0.1420
     37 H5          3.2975    0.2723   -4.0500 H         1 <0>         0.1434
     38 H6          1.8328   -3.1768   -1.9898 H         1 <0>         0.1361
     39 H7          1.4032   -1.8014    0.0047 H         1 <0>         0.1461
     40 H8          3.7316   -5.1263  -10.0703 H         1 <0>         0.4125
     41 H9          3.4043   -2.2154  -10.0075 H         1 <0>         0.0986
     42 H10         1.1743   -4.1423  -10.6494 H         1 <0>         0.0672
     43 H11         1.0829   -2.4499  -10.0689 H         1 <0>         0.0727
     44 H12         0.5053   -2.9788  -12.6488 H         1 <0>         0.0676
     45 H13         1.5308   -1.5573  -12.2638 H         1 <0>         0.0697
     46 H14         2.4130   -4.3550  -13.1638 H         1 <0>         0.0664
     47 H15         2.9277   -2.7666  -13.8134 H         1 <0>         0.0680
     48 H16         4.4108   -2.3879  -12.0522 H         1 <0>         0.0760
     49 H17         4.3808   -4.1689  -11.9163 H         1 <0>         0.0710
     50 H18         2.4649   -6.2811   -4.1080 H         1 <0>         0.1490
     51 H19         3.1019   -8.2749   -2.8183 H         1 <0>         0.1566
     52 H20         5.8947   -6.8283   -6.6231 H         1 <0>         0.1542
     53 H21         3.2144   -4.0470   -2.2598 H         1 <0>         0.4085
     54 H22         3.9354   -5.2277   -3.2131 H         1 <0>         0.4194
@<TRIPOS>BOND
     1    1    2 1
     2    1   33 1
     3    1   34 1
     4    1   35 1
     5    2    3 1
     6    3    8 ar
     7    3    4 ar
     8    4    5 ar
     9    4   36 1
    10    5    6 ar
    11    5   37 1
    12    6    7 ar
    13    6    9 1
    14    7    8 ar
    15    7   38 1
    16    8   39 1
    17    9   17 1
    18    9   10 1
    19   10   11 2
    20   10   32 1
    21   11   16 ar
    22   11   12 ar
    23   12   13 ar
    24   12   24 1
    25   13   14 ar
    26   14   15 ar
    27   14   18 1
    28   15   16 ar
    29   16   17 2
    30   18   19 1
    31   18   40 1
    32   19   23 1
    33   19   20 1
    34   19   41 1
    35   20   21 1
    36   20   42 1
    37   20   43 1
    38   21   22 1
    39   21   44 1
    40   21   45 1
    41   22   23 1
    42   22   46 1
    43   22   47 1
    44   23   48 1
    45   23   49 1
    46   24   29 ar
    47   24   25 ar
    48   25   26 ar
    49   25   50 1
    50   26   27 ar
    51   26   51 1
    52   27   28 ar
    53   27   31 1
    54   28   29 ar
    55   28   30 1
    56   29   52 1
    57   32   53 1
    58   32   54 1
@<TRIPOS>MOLECULE
ZINC59598124
   32    33     0     0     0
SMALL
USER_CHARGES

@<TRIPOS>ATOM
      1 C1          1.0717   -0.4531   -0.7671 C.ar      1 <0>        -0.1174
      2 C2          2.2560    0.2574   -0.7794 C.ar      1 <0>        -0.0680
      3 C3          2.3770    1.4159   -0.0326 C.ar      1 <0>        -0.1079
      4 C4          1.3126    1.8658    0.7283 C.ar      1 <0>        -0.0677
      5 C5          0.1260    1.1592    0.7443 C.ar      1 <0>        -0.1397
      6 C6          0.0017   -0.0035   -0.0047 C.ar      1 <0>         0.1775
      7 N1         -1.1996   -0.7215    0.0096 N.am      1 <0>        -0.6684
      8 C7         -1.1831   -2.0648   -0.0995 C.2       1 <0>         0.7345
      9 O1         -0.1232   -2.6608   -0.1130 O.2       1 <0>        -0.5544
     10 N2         -2.3414   -2.7475   -0.1936 N.am      1 <0>        -0.5786
     11 N3         -3.5625   -2.0608   -0.1781 N.2       1 <0>        -0.2527
     12 C8         -4.6776   -2.7181   -0.2687 C.2       1 <0>         0.1308
     13 C9         -5.9627   -1.9955   -0.2523 C.ar      1 <0>        -0.0559
     14 C10        -5.9818   -0.6025   -0.1451 C.ar      1 <0>        -0.0243
     15 C11        -7.1860    0.0695   -0.1301 C.ar      1 <0>        -0.1224
     16 C12        -8.3790   -0.6367   -0.2210 C.ar      1 <0>         0.1830
     17 C13        -8.3646   -2.0219   -0.3274 C.ar      1 <0>        -0.1212
     18 C14        -7.1646   -2.7012   -0.3498 C.ar      1 <0>        -0.0303
     19 Br1        -9.9923   -2.9766   -0.4495 Br        1 <0>        -0.0123
     20 O2         -9.5634    0.0292   -0.2055 O.3       1 <0>        -0.4721
     21 Br2        -7.2135    1.9547    0.0151 Br        1 <0>        -0.0130
     22 Br3         4.0003    2.3857   -0.0515 Br        1 <0>        -0.0491
     23 H1          0.9765   -1.3550   -1.3535 H         1 <0>         0.1438
     24 H2          3.0885   -0.0917   -1.3722 H         1 <0>         0.1373
     25 H3          1.4098    2.7702    1.3106 H         1 <0>         0.1386
     26 H4         -0.7042    1.5105    1.3390 H         1 <0>         0.1365
     27 H5         -2.0440   -0.2524    0.0981 H         1 <0>         0.4198
     28 H6         -2.3295   -3.7142   -0.2721 H         1 <0>         0.4091
     29 H7         -4.6644   -3.7945   -0.3561 H         1 <0>         0.1354
     30 H8         -5.0549   -0.0528   -0.0736 H         1 <0>         0.1531
     31 H9         -7.1541   -3.7776   -0.4374 H         1 <0>         0.1524
     32 H10        -9.8795    0.2901   -1.0813 H         1 <0>         0.4035
@<TRIPOS>BOND
     1    1    6 ar
     2    1    2 ar
     3    1   23 1
     4    2    3 ar
     5    2   24 1
     6    3    4 ar
     7    3   22 1
     8    4    5 ar
     9    4   25 1
    10    5    6 ar
    11    5   26 1
    12    6    7 1
    13    7    8 am
    14    7   27 1
    15    8    9 2
    16    8   10 am
    17   10   11 1
    18   10   28 1
    19   11   12 2
    20   12   13 1
    21   12   29 1
    22   13   18 ar
    23   13   14 ar
    24   14   15 ar
    25   14   30 1
    26   15   16 ar
    27   15   21 1
    28   16   17 ar
    29   16   20 1
    30   17   18 ar
    31   17   19 1
    32   18   31 1
    33   20   32 1
@<TRIPOS>MOLECULE
ZINC09245821
   58    62     0     0     0
SMALL
USER_CHARGES
N-(2,4-dimethylphenyl)-4-(indan-5-ylsulfanylmethyl)-9-methyl-2-oxo-7-thia-3,5-diazabicyclo[4.3.0]nona-4,8,10-triene-8-carboxamide
@<TRIPOS>ATOM
      1 C1         -2.5555    3.8635    0.0023 C.3       1 <0>        -0.1145
      2 C2         -1.2384    3.1312   -0.0019 C.ar      1 <0>        -0.0928
      3 C3         -1.1402    1.8913   -0.6069 C.ar      1 <0>        -0.1081
      4 C4          0.0639    1.2155   -0.6084 C.ar      1 <0>        -0.1099
      5 C5          1.1799    1.7867   -0.0101 C.ar      1 <0>         0.1349
      6 C6          1.0791    3.0339    0.5924 C.ar      1 <0>        -0.1035
      7 C7         -0.1297    3.7023    0.5949 C.ar      1 <0>        -0.1040
      8 C8          2.2871    3.6572    1.2431 C.3       1 <0>        -0.1181
      9 N1          2.4020    1.1072   -0.0140 N.am      1 <0>        -0.6645
     10 C9          2.4260   -0.2370    0.0812 C.2       1 <0>         0.6116
     11 O1          1.3836   -0.8653    0.0880 O.2       1 <0>        -0.4967
     12 C10         3.7076   -0.9423    0.1766 C.2       1 <0>        -0.2572
     13 C11         3.9355   -2.2831    0.2845 C.2       1 <0>         0.0401
     14 C12         5.2457   -2.7616    0.3590 C.2       1 <0>        -0.2572
     15 C13         5.7272   -4.1571    0.4738 C.2       1 <0>         0.5654
     16 O2          4.9422   -5.0879    0.5109 O.2       1 <0>        -0.4955
     17 N2          7.0560   -4.3707    0.5366 N.am      1 <0>        -0.6309
     18 H1          7.3880   -5.2790    0.6117 H         1 <0>         0.4259
     19 C14         7.9387   -3.3424    0.4966 C.2       1 <0>         0.4430
     20 N3          7.5478   -2.1010    0.3958 N.2       1 <0>        -0.4762
     21 C15         6.2623   -1.7799    0.3271 C.2       1 <0>         0.1279
     22 S1          5.3566   -0.2596    0.1884 S.3       1 <0>         0.1978
     23 C16         9.4139   -3.6412    0.5711 C.3       1 <0>        -0.0953
     24 S2         10.3497   -2.0890    0.4970 S.3       1 <0>        -0.0037
     25 C17        12.0329   -2.6010    0.5939 C.ar      1 <0>        -0.1078
     26 C18        12.3463   -3.9511    0.6994 C.ar      1 <0>        -0.1364
     27 C19        13.6658   -4.3459    0.7744 C.ar      1 <0>        -0.0866
     28 C20        14.6810   -3.4029    0.7451 C.ar      1 <0>        -0.0995
     29 C21        14.3728   -2.0588    0.6403 C.ar      1 <0>        -0.0760
     30 C22        13.0511   -1.6578    0.5594 C.ar      1 <0>        -0.0832
     31 C23        15.6468   -1.2411    0.6291 C.3       1 <0>        -0.0848
     32 C24        16.7694   -2.2470    0.2975 C.3       1 <0>        -0.1213
     33 C25        16.1833   -3.5791    0.8114 C.3       1 <0>        -0.0839
     34 C26         2.7767   -3.2459    0.3184 C.3       1 <0>        -0.1242
     35 H2         -2.6257    4.4900   -0.8868 H         1 <0>         0.0706
     36 H3         -3.3724    3.1419    0.0038 H         1 <0>         0.0668
     37 H4         -2.6210    4.4882    0.8931 H         1 <0>         0.0661
     38 H5         -2.0072    1.4497   -1.0758 H         1 <0>         0.1261
     39 H6          0.1391    0.2459   -1.0780 H         1 <0>         0.1410
     40 H7         -0.2087    4.6723    1.0632 H         1 <0>         0.1266
     41 H8          2.8257    4.2575    0.5098 H         1 <0>         0.0731
     42 H9          1.9675    4.2929    2.0688 H         1 <0>         0.0737
     43 H10         2.9418    2.8721    1.6213 H         1 <0>         0.0632
     44 H11         3.2326    1.6032   -0.0852 H         1 <0>         0.4086
     45 H12         9.6339   -4.1538    1.5076 H         1 <0>         0.1316
     46 H13         9.6985   -4.2775   -0.2669 H         1 <0>         0.1316
     47 H14        11.5583   -4.6893    0.7230 H         1 <0>         0.1219
     48 H15        13.9090   -5.3949    0.8567 H         1 <0>         0.1242
     49 H16        12.8107   -0.6085    0.4730 H         1 <0>         0.1275
     50 H17        15.5933   -0.4679   -0.1373 H         1 <0>         0.0783
     51 H18        15.8173   -0.7932    1.6081 H         1 <0>         0.0837
     52 H19        16.9458   -2.2903   -0.7772 H         1 <0>         0.0738
     53 H20        17.6855   -1.9952    0.8318 H         1 <0>         0.0790
     54 H21        16.4980   -3.7592    1.8393 H         1 <0>         0.0817
     55 H22        16.4962   -4.4026    0.1694 H         1 <0>         0.0763
     56 H23         2.5313   -3.5551   -0.6976 H         1 <0>         0.0819
     57 H24         3.0485   -4.1210    0.9088 H         1 <0>         0.0835
     58 H25         1.9121   -2.7582    0.7686 H         1 <0>         0.0944
@<TRIPOS>BOND
     1    1    2 1
     2    1   35 1
     3    1   36 1
     4    1   37 1
     5    2    7 ar
     6    2    3 ar
     7    3    4 ar
     8    3   38 1
     9    4    5 ar
    10    4   39 1
    11    5    6 ar
    12    5    9 1
    13    6    7 ar
    14    6    8 1
    15    7   40 1
    16    8   41 1
    17    8   42 1
    18    8   43 1
    19    9   10 am
    20    9   44 1
    21   10   11 2
    22   10   12 1
    23   12   22 1
    24   12   13 2
    25   13   14 1
    26   13   34 1
    27   14   21 2
    28   14   15 1
    29   15   16 2
    30   15   17 am
    31   17   18 1
    32   17   19 1
    33   19   20 2
    34   19   23 1
    35   20   21 1
    36   21   22 1
    37   23   24 1
    38   23   45 1
    39   23   46 1
    40   24   25 1
    41   25   30 ar
    42   25   26 ar
    43   26   27 ar
    44   26   47 1
    45   27   28 ar
    46   27   48 1
    47   28   33 1
    48   28   29 ar
    49   29   30 ar
    50   29   31 1
    51   30   49 1
    52   31   32 1
    53   31   50 1
    54   31   51 1
    55   32   33 1
    56   32   52 1
    57   32   53 1
    58   33   54 1
    59   33   55 1
    60   34   56 1
    61   34   57 1
    62   34   58 1
@<TRIPOS>MOLECULE
ZINC13643356
   65    69     0     0     0
SMALL
USER_CHARGES
(3aR,4R,9bS)-4-(4-dimethylaminophenyl)-N-(3,4-dimethylphenyl)-3a,4,5,9b-tetrahydro-3H-cyclopenta[c]quinoline-8-sulfonamide
@<TRIPOS>ATOM
      1 C1        -10.8650    6.0789   -2.2439 C.3       1 <0>        -0.1209
      2 C2        -10.6315    4.7227   -1.6298 C.ar      1 <0>        -0.0779
      3 C3         -9.6375    4.5560   -0.6826 C.ar      1 <0>        -0.1111
      4 C4         -9.4246    3.3160   -0.1137 C.ar      1 <0>        -0.1108
      5 C5        -10.2036    2.2328   -0.5011 C.ar      1 <0>         0.1222
      6 C6        -11.2009    2.4036   -1.4525 C.ar      1 <0>        -0.1018
      7 C7        -11.4117    3.6479   -2.0141 C.ar      1 <0>        -0.0788
      8 C8        -12.4936    3.8342   -3.0465 C.3       1 <0>        -0.1209
      9 N1         -9.9881    0.9761    0.0692 N.pl3     1 <0>        -1.0648
     10 S1         -9.2478   -0.2161   -0.8099 S.o2      1 <0>         2.6907
     11 O1         -9.9322   -0.2886   -2.0531 O.2       1 <0>        -0.9534
     12 O2         -9.1173   -1.3365    0.0543 O.2       1 <0>        -0.9590
     13 C9         -7.6135    0.3379   -1.1664 C.ar      1 <0>        -0.7212
     14 C10        -7.3457    0.9626   -2.3710 C.ar      1 <0>         0.0248
     15 C11        -6.0640    1.3949   -2.6472 C.ar      1 <0>        -0.2045
     16 C12        -5.0496    1.2015   -1.7178 C.ar      1 <0>         0.2742
     17 C13        -5.3139    0.5777   -0.5083 C.ar      1 <0>        -0.1589
     18 C14        -6.6067    0.1471   -0.2423 C.ar      1 <0>         0.0259
     19 C15        -4.2557    0.3522    0.5244 C.3       1 <0>        -0.0160
     20 H1         -4.6316    0.6500    1.5033 H         1 <0>         0.0939
     21 C16        -3.8272   -1.0954    0.5666 C.2       1 <0>        -0.1567
     22 C17        -2.5414   -1.1814    0.8061 C.2       1 <0>        -0.1676
     23 C18        -1.9368    0.2005    0.9626 C.3       1 <0>        -0.0975
     24 C19        -2.9545    1.1234    0.2317 C.3       1 <0>        -0.0934
     25 H2         -2.9722    2.1434    0.6155 H         1 <0>         0.0960
     26 C20        -2.6349    1.0629   -1.2647 C.3       1 <0>         0.2107
     27 H3         -2.4911    0.0257   -1.5674 H         1 <0>         0.0795
     28 N2         -3.7551    1.6423   -2.0134 N.pl3     1 <0>        -0.7362
     29 C21        -1.3801    1.8491   -1.5450 C.ar      1 <0>        -0.1551
     30 C22        -0.1756    1.1901   -1.7098 C.ar      1 <0>        -0.0541
     31 C23         0.9751    1.9071   -1.9729 C.ar      1 <0>        -0.1952
     32 C24         0.9226    3.2920   -2.0661 C.ar      1 <0>         0.2204
     33 C25        -0.2880    3.9512   -1.8943 C.ar      1 <0>        -0.1961
     34 C26        -1.4349    3.2281   -1.6315 C.ar      1 <0>        -0.0589
     35 N3          2.0844    4.0202   -2.3325 N.pl3     1 <0>        -0.6374
     36 C27         3.3602    3.3233   -2.5139 C.3       1 <0>         0.0909
     37 C28         2.0271    5.4808   -2.4305 C.3       1 <0>         0.0912
     38 H4        -11.5935    6.6275   -1.6470 H         1 <0>         0.0730
     39 H5         -9.9263    6.6323   -2.2703 H         1 <0>         0.0666
     40 H6        -11.2440    5.9578   -3.2587 H         1 <0>         0.0727
     41 H7         -9.0296    5.3976   -0.3849 H         1 <0>         0.1263
     42 H8         -8.6512    3.1875    0.6291 H         1 <0>         0.1270
     43 H9        -11.8107    1.5645   -1.7532 H         1 <0>         0.1348
     44 H10       -13.4268    4.1013   -2.5507 H         1 <0>         0.0729
     45 H11       -12.2066    4.6299   -3.7339 H         1 <0>         0.0727
     46 H12       -12.6298    2.9061   -3.6016 H         1 <0>         0.0700
     47 H13       -10.2721    0.8017    0.9801 H         1 <0>         0.4236
     48 H14        -8.1356    1.1114   -3.0923 H         1 <0>         0.1384
     49 H15        -5.8499    1.8840   -3.5860 H         1 <0>         0.1299
     50 H16        -6.8262   -0.3410    0.6958 H         1 <0>         0.1341
     51 H17        -4.4857   -1.9388    0.4200 H         1 <0>         0.1285
     52 H18        -1.9898   -2.1068    0.8817 H         1 <0>         0.1281
     53 H19        -1.8611    0.4696    2.0161 H         1 <0>         0.0805
     54 H20        -0.9587    0.2483    0.4839 H         1 <0>         0.0781
     55 H21        -3.6024    2.3143   -2.6961 H         1 <0>         0.4058
     56 H22        -0.1355    0.1133   -1.6372 H         1 <0>         0.1229
     57 H23         1.9148    1.3915   -2.1056 H         1 <0>         0.1245
     58 H24        -0.3323    5.0279   -1.9658 H         1 <0>         0.1232
     59 H25        -2.3766    3.7400   -1.4981 H         1 <0>         0.1202
     60 H26         3.4923    3.0756   -3.5671 H         1 <0>         0.0498
     61 H27         4.1760    3.9681   -2.1872 H         1 <0>         0.0679
     62 H28         3.3614    2.4078   -1.9224 H         1 <0>         0.0697
     63 H29         2.1972    5.9179   -1.4466 H         1 <0>         0.0498
     64 H30         2.7956    5.8290   -3.1206 H         1 <0>         0.0679
     65 H31         1.0459    5.7821   -2.7973 H         1 <0>         0.0691
@<TRIPOS>BOND
     1    1    2 1
     2    1   38 1
     3    1   39 1
     4    1   40 1
     5    2    7 ar
     6    2    3 ar
     7    3    4 ar
     8    3   41 1
     9    4    5 ar
    10    4   42 1
    11    5    6 ar
    12    5    9 1
    13    6    7 ar
    14    6   43 1
    15    7    8 1
    16    8   44 1
    17    8   45 1
    18    8   46 1
    19    9   10 1
    20    9   47 1
    21   10   11 2
    22   10   12 2
    23   10   13 1
    24   13   18 ar
    25   13   14 ar
    26   14   15 ar
    27   14   48 1
    28   15   16 ar
    29   15   49 1
    30   16   28 1
    31   16   17 ar
    32   17   18 ar
    33   17   19 1
    34   18   50 1
    35   19   20 1
    36   19   24 1
    37   19   21 1
    38   21   22 2
    39   21   51 1
    40   22   23 1
    41   22   52 1
    42   23   24 1
    43   23   53 1
    44   23   54 1
    45   24   25 1
    46   24   26 1
    47   26   27 1
    48   26   28 1
    49   26   29 1
    50   28   55 1
    51   29   34 ar
    52   29   30 ar
    53   30   31 ar
    54   30   56 1
    55   31   32 ar
    56   31   57 1
    57   32   33 ar
    58   32   35 1
    59   33   34 ar
    60   33   58 1
    61   34   59 1
    62   35   36 1
    63   35   37 1
    64   36   60 1
    65   36   61 1
    66   36   62 1
    67   37   63 1
    68   37   64 1
    69   37   65 1
@<TRIPOS>MOLECULE
ZINC16512874
   46    49     0     0     0
SMALL
USER_CHARGES
4-[(E)-[[2-(4-bromophenyl)-6-phenyl-pyrimidin-4-yl]hydrazono]methyl]phenol
@<TRIPOS>ATOM
      1 C1          4.9302   -0.1872   -0.0433 C.ar      1 <0>        -0.0991
      2 C2          4.8838    1.1953   -0.0363 C.ar      1 <0>        -0.1266
      3 C3          3.6676    1.8475   -0.0220 C.ar      1 <0>        -0.0687
      4 C4          2.4848    1.1105   -0.0147 C.ar      1 <0>        -0.0618
      5 C5          2.5376   -0.2821   -0.0160 C.ar      1 <0>        -0.0907
      6 C6          3.7594   -0.9237   -0.0360 C.ar      1 <0>        -0.1253
      7 C7          1.1746    1.8058    0.0005 C.ar      1 <0>         0.2569
      8 C8         -0.0126    1.0758    0.0080 C.ar      1 <0>        -0.2783
      9 C9         -1.2204    1.7740    0.0174 C.ar      1 <0>         0.4631
     10 N1         -1.1990    3.1036    0.0297 N.ar      1 <0>        -0.5358
     11 C10        -0.0501    3.7649    0.0218 C.ar      1 <0>         0.4034
     12 N2          1.1163    3.1367    0.0078 N.ar      1 <0>        -0.5382
     13 C11        -0.0710    5.2478    0.0295 C.ar      1 <0>        -0.0323
     14 C12         1.1248    5.9640    0.0277 C.ar      1 <0>        -0.0624
     15 C13         1.0998    7.3436    0.0299 C.ar      1 <0>        -0.1024
     16 C14        -0.1100    8.0163    0.0441 C.ar      1 <0>        -0.0708
     17 C15        -1.3003    7.3097    0.0513 C.ar      1 <0>        -0.1021
     18 C16        -1.2864    5.9300    0.0443 C.ar      1 <0>        -0.0606
     19 Br1        -0.1366    9.9071    0.0545 Br        1 <0>        -0.0458
     20 N3         -2.4263    1.0911    0.0198 N.pl3     1 <0>        -0.5585
     21 N4         -3.6337    1.8017    0.0292 N.2       1 <0>        -0.2148
     22 C17        -4.7632    1.1620    0.0315 C.2       1 <0>         0.1020
     23 C18        -6.0338    1.9097    0.0414 C.ar      1 <0>        -0.0638
     24 C19        -6.0246    3.3070    0.0543 C.ar      1 <0>        -0.0614
     25 C20        -7.2148    4.0017    0.0597 C.ar      1 <0>        -0.1499
     26 C21        -8.4221    3.3152    0.0616 C.ar      1 <0>         0.1225
     27 C22        -8.4361    1.9264    0.0537 C.ar      1 <0>        -0.1499
     28 C23        -7.2509    1.2233    0.0439 C.ar      1 <0>        -0.0734
     29 O1         -9.5930    4.0042    0.0717 O.3       1 <0>        -0.4995
     30 H1          5.8841   -0.6934   -0.0548 H         1 <0>         0.1267
     31 H2          5.8011    1.7654   -0.0416 H         1 <0>         0.1291
     32 H3          3.6326    2.9269   -0.0170 H         1 <0>         0.1373
     33 H4          1.6241   -0.8582   -0.0058 H         1 <0>         0.1266
     34 H5          3.8014   -2.0029   -0.0415 H         1 <0>         0.1286
     35 H6          0.0021   -0.0041    0.0020 H         1 <0>         0.1477
     36 H7          2.0691    5.4401    0.0211 H         1 <0>         0.1463
     37 H8          2.0257    7.8996    0.0248 H         1 <0>         0.1391
     38 H9         -2.2415    7.8392    0.0628 H         1 <0>         0.1387
     39 H10        -2.2156    5.3796    0.0506 H         1 <0>         0.1478
     40 H11        -2.4343    0.1212    0.0149 H         1 <0>         0.4007
     41 H12        -4.7722    0.0820    0.0260 H         1 <0>         0.1205
     42 H13        -5.0862    3.8416    0.0570 H         1 <0>         0.1400
     43 H14        -7.2087    5.0817    0.0662 H         1 <0>         0.1336
     44 H15        -9.3773    1.3967    0.0556 H         1 <0>         0.1341
     45 H16        -7.2627    0.1433    0.0384 H         1 <0>         0.1330
     46 H17        -9.9274    4.1986    0.9580 H         1 <0>         0.3945
@<TRIPOS>BOND
     1    1    6 ar
     2    1    2 ar
     3    1   30 1
     4    2    3 ar
     5    2   31 1
     6    3    4 ar
     7    3   32 1
     8    4    5 ar
     9    4    7 1
    10    5    6 ar
    11    5   33 1
    12    6   34 1
    13    7   12 ar
    14    7    8 ar
    15    8    9 ar
    16    8   35 1
    17    9   10 ar
    18    9   20 1
    19   10   11 ar
    20   11   12 ar
    21   11   13 1
    22   13   18 ar
    23   13   14 ar
    24   14   15 ar
    25   14   36 1
    26   15   16 ar
    27   15   37 1
    28   16   17 ar
    29   16   19 1
    30   17   18 ar
    31   17   38 1
    32   18   39 1
    33   20   21 1
    34   20   40 1
    35   21   22 2
    36   22   23 1
    37   22   41 1
    38   23   28 ar
    39   23   24 ar
    40   24   25 ar
    41   24   42 1
    42   25   26 ar
    43   25   43 1
    44   26   27 ar
    45   26   29 1
    46   27   28 ar
    47   27   44 1
    48   28   45 1
    49   29   46 1
@<TRIPOS>MOLECULE
ZINC01861477
   57    60     0     0     0
SMALL
USER_CHARGES
N-[[5-(5,7-dimethyl-1,3-benzoxazol-2-yl)-2-methyl-phenyl]carbamothioyl]-2,4-dimethyl-benzamide
@<TRIPOS>ATOM
      1 C1          0.2871  -12.6773   -1.9282 C.3       1 <0>        -0.1252
      2 C2          0.2313  -11.1781   -1.7849 C.ar      1 <0>        -0.0478
      3 C3         -0.8399  -10.5875   -1.1376 C.ar      1 <0>        -0.1345
      4 C4         -0.8972   -9.2160   -1.0030 C.ar      1 <0>        -0.0801
      5 C5          0.1287   -8.4233   -1.5215 C.ar      1 <0>        -0.1492
      6 C6          1.2037   -9.0253   -2.1778 C.ar      1 <0>        -0.0091
      7 C7          1.2509  -10.3986   -2.3013 C.ar      1 <0>        -0.1299
      8 C8          2.3124   -8.1773   -2.7460 C.3       1 <0>        -0.1181
      9 C9          0.0738   -6.9532   -1.3814 C.2       1 <0>         0.5352
     10 O1          0.9333   -6.2617   -1.8912 O.2       1 <0>        -0.3991
     11 N1         -0.9296   -6.3794   -0.6882 N.am      1 <0>        -0.6527
     12 C10        -0.9797   -5.0387   -0.5604 C.2       1 <0>         0.5168
     13 S1          0.2311   -4.0645   -1.2786 S.2       1 <0>        -0.4861
     14 N2         -1.9830   -4.4648    0.1328 N.pl3     1 <0>        -0.6325
     15 C11        -2.0894   -3.0709    0.1849 C.ar      1 <0>         0.1176
     16 C12        -0.9699   -2.2998    0.4579 C.ar      1 <0>        -0.0112
     17 C13        -1.0814   -0.9108    0.5091 C.ar      1 <0>        -0.0336
     18 C14        -2.3207   -0.3060    0.2908 C.ar      1 <0>        -0.0685
     19 C15        -3.4279   -1.0819    0.0146 C.ar      1 <0>        -0.1203
     20 C16        -3.3173   -2.4590   -0.0367 C.ar      1 <0>        -0.0588
     21 C17        -4.5325   -3.2994   -0.3332 C.3       1 <0>        -0.1209
     22 C18         0.1076   -0.0816    0.7996 C.2       1 <0>         0.2978
     23 N3          1.3103   -0.5467    1.0229 N.2       1 <0>        -0.4610
     24 C19         2.1469    0.4978    1.2515 C.ar      1 <0>         0.0365
     25 C20         3.5108    0.5967    1.5382 C.ar      1 <0>        -0.0704
     26 C21         4.0817    1.8359    1.7219 C.ar      1 <0>        -0.0794
     27 C22         3.3114    2.9856    1.6249 C.ar      1 <0>        -0.0985
     28 C23         1.9637    2.9036    1.3424 C.ar      1 <0>        -0.0527
     29 C24         1.3713    1.6645    1.1538 C.ar      1 <0>         0.0040
     30 O2          0.1119    1.2629    0.8724 O.3       1 <0>        -0.2080
     31 C25         1.1367    4.1592    1.2383 C.3       1 <0>        -0.1180
     32 C26         5.5526    1.9441    2.0312 C.3       1 <0>        -0.1147
     33 H1         -0.6026  -13.1237   -1.4601 H         1 <0>         0.0697
     34 H2          1.1923  -13.0594   -1.4337 H         1 <0>         0.0766
     35 H3          0.3123  -12.9429   -2.9953 H         1 <0>         0.0766
     36 H4         -1.6329  -11.2018   -0.7374 H         1 <0>         0.1303
     37 H5         -1.7338   -8.7562   -0.4980 H         1 <0>         0.1216
     38 H6          2.0838  -10.8659   -2.8056 H         1 <0>         0.1328
     39 H7          3.0632   -8.8257   -3.2212 H         1 <0>         0.0615
     40 H8          2.7849   -7.6013   -1.9367 H         1 <0>         0.0835
     41 H9          1.8983   -7.4860   -3.4947 H         1 <0>         0.0865
     42 H10        -1.7076   -7.0054   -0.2268 H         1 <0>         0.4297
     43 H11        -2.7182   -5.0925    0.6576 H         1 <0>         0.4293
     44 H12        -0.0147   -2.7735    0.6300 H         1 <0>         0.1626
     45 H13        -2.4121    0.7693    0.3344 H         1 <0>         0.1361
     46 H14        -4.3848   -0.6120   -0.1581 H         1 <0>         0.1386
     47 H15        -5.4044   -2.6447   -0.4788 H         1 <0>         0.0773
     48 H16        -4.7219   -3.9803    0.5097 H         1 <0>         0.0713
     49 H17        -4.3582   -3.8866   -1.2469 H         1 <0>         0.0729
     50 H18         4.1148   -0.2953    1.6152 H         1 <0>         0.1360
     51 H19         3.7705    3.9522    1.7713 H         1 <0>         0.1402
     52 H20         0.0942    3.8936    1.0090 H         1 <0>         0.0679
     53 H21         1.5375    4.7968    0.4365 H         1 <0>         0.0770
     54 H22         1.1749    4.7036    2.1934 H         1 <0>         0.0768
     55 H23         5.8266    3.0034    2.1441 H         1 <0>         0.0700
     56 H24         6.1337    1.5006    1.2092 H         1 <0>         0.0741
     57 H25         5.7711    1.4072    2.9661 H         1 <0>         0.0737
@<TRIPOS>BOND
     1    1    2 1
     2    1   33 1
     3    1   34 1
     4    1   35 1
     5    2    7 ar
     6    2    3 ar
     7    3    4 ar
     8    3   36 1
     9    4    5 ar
    10    4   37 1
    11    5    6 ar
    12    5    9 1
    13    6    7 ar
    14    6    8 1
    15    7   38 1
    16    8   39 1
    17    8   40 1
    18    8   41 1
    19    9   10 2
    20    9   11 am
    21   11   12 1
    22   11   42 1
    23   12   13 2
    24   12   14 1
    25   14   15 1
    26   14   43 1
    27   15   20 ar
    28   15   16 ar
    29   16   17 ar
    30   16   44 1
    31   17   18 ar
    32   17   22 1
    33   18   19 ar
    34   18   45 1
    35   19   20 ar
    36   19   46 1
    37   20   21 1
    38   21   47 1
    39   21   48 1
    40   21   49 1
    41   22   30 1
    42   22   23 2
    43   23   24 1
    44   24   29 ar
    45   24   25 ar
    46   25   26 ar
    47   25   50 1
    48   26   27 ar
    49   26   32 1
    50   27   28 ar
    51   27   51 1
    52   28   29 ar
    53   28   31 1
    54   29   30 1
    55   31   52 1
    56   31   53 1
    57   31   54 1
    58   32   55 1
    59   32   56 1
    60   32   57 1
@<TRIPOS>MOLECULE
ZINC02280052
   59    62     0     0     0
SMALL
USER_CHARGES

@<TRIPOS>ATOM
      1 C1          3.1511   -0.9402   -1.5468 C.3       1 <0>        -0.1805
      2 C2          1.9842   -0.0106   -1.2074 C.3       1 <0>         0.1392
      3 H1          1.9323    0.7875   -1.9479 H         1 <0>         0.1245
      4 C3          0.6988   -0.7961   -1.2306 C.2       1 <0>        -0.1600
      5 C4          0.2701   -1.4187   -0.1003 C.2       1 <0>        -0.0417
      6 C5          1.0863   -1.2752    1.1146 C.ar      1 <0>        -0.1430
      7 C6          0.9198   -2.1246    2.2081 C.ar      1 <0>        -0.0646
      8 C7          1.7084   -1.9538    3.3275 C.ar      1 <0>        -0.1484
      9 C8          2.6590   -0.9467    3.3669 C.ar      1 <0>        -0.0753
     10 C9          2.8324   -0.0986    2.2880 C.ar      1 <0>        -0.1467
     11 C10         2.0516   -0.2539    1.1575 C.ar      1 <0>         0.1391
     12 O1          2.1944    0.5580    0.0855 O.3       1 <0>        -0.3038
     13 C11        -0.0561   -0.8847   -2.4182 C.2       1 <0>        -0.0728
     14 C12        -1.3998   -0.6670   -2.3886 C.2       1 <0>         0.0872
     15 C13        -2.2051   -0.8892   -3.5931 C.2       1 <0>         0.5539
     16 O2         -3.3851   -0.5908   -3.6000 O.2       1 <0>        -0.5162
     17 N1         -1.6388   -1.4240   -4.6931 N.am      1 <0>        -0.7205
     18 C14        -2.4436   -1.6461   -5.8969 C.3       1 <0>         0.1483
     19 C15        -3.1603   -2.9936   -5.7898 C.3       1 <0>        -0.1294
     20 C16        -4.0008   -3.2256   -7.0471 C.3       1 <0>        -0.1175
     21 C17        -3.0896   -3.2288   -8.2762 C.3       1 <0>        -0.1227
     22 C18        -2.3729   -1.8813   -8.3833 C.3       1 <0>        -0.1160
     23 C19        -1.5324   -1.6494   -7.1260 C.3       1 <0>        -0.1264
     24 N2         -2.0116   -0.2315   -1.2094 N.am      1 <0>        -0.6628
     25 C20        -3.0136   -0.9499   -0.6650 C.2       1 <0>         0.5678
     26 O3         -3.3274   -2.0199   -1.1496 O.2       1 <0>        -0.5050
     27 C21        -3.7306   -0.4371    0.5207 C.ar      1 <0>        -0.1305
     28 C22        -3.3762    0.7941    1.0761 C.ar      1 <0>        -0.0709
     29 C23        -4.0491    1.2673    2.1827 C.ar      1 <0>        -0.1158
     30 C24        -5.0744    0.5238    2.7437 C.ar      1 <0>        -0.0086
     31 C25        -5.4302   -0.6984    2.1976 C.ar      1 <0>        -0.1167
     32 C26        -4.7691   -1.1791    1.0870 C.ar      1 <0>        -0.0431
     33 Cl1        -5.9165    1.1260    4.1372 Cl        1 <0>        -0.0577
     34 H2          3.2057   -1.7396   -0.8078 H         1 <0>         0.0625
     35 H3          2.9971   -1.3702   -2.5365 H         1 <0>         0.0758
     36 H4          4.0819   -0.3731   -1.5379 H         1 <0>         0.0724
     37 H5         -0.6405   -1.9995   -0.0948 H         1 <0>         0.1332
     38 H6          0.1791   -2.9100    2.1791 H         1 <0>         0.1286
     39 H7          1.5837   -2.6083    4.1775 H         1 <0>         0.1285
     40 H8          3.2702   -0.8224    4.2485 H         1 <0>         0.1319
     41 H9          3.5761    0.6836    2.3288 H         1 <0>         0.1344
     42 H10         0.4315   -1.1252   -3.3513 H         1 <0>         0.1418
     43 H11        -0.6984   -1.6618   -4.6876 H         1 <0>         0.3977
     44 H12        -3.1808   -0.8491   -5.9933 H         1 <0>         0.0895
     45 H13        -2.4230   -3.7906   -5.6934 H         1 <0>         0.0634
     46 H14        -3.8094   -2.9913   -4.9142 H         1 <0>         0.0696
     47 H15        -4.5114   -4.1855   -6.9708 H         1 <0>         0.0656
     48 H16        -4.7380   -2.4285   -7.1434 H         1 <0>         0.0643
     49 H17        -2.3524   -4.0259   -8.1798 H         1 <0>         0.0628
     50 H18        -3.6884   -3.3941   -9.1719 H         1 <0>         0.0645
     51 H19        -1.7238   -1.8837   -9.2589 H         1 <0>         0.0682
     52 H20        -3.1101   -1.0843   -8.4797 H         1 <0>         0.0656
     53 H21        -1.0218   -0.6894   -7.2023 H         1 <0>         0.0692
     54 H22        -0.7952   -2.4464   -7.0297 H         1 <0>         0.0686
     55 H23        -1.7149    0.5877   -0.7830 H         1 <0>         0.4119
     56 H24        -2.5765    1.3743    0.6399 H         1 <0>         0.1336
     57 H25        -3.7760    2.2194    2.6131 H         1 <0>         0.1422
     58 H26        -6.2302   -1.2737    2.6396 H         1 <0>         0.1436
     59 H27        -5.0506   -2.1299    0.6592 H         1 <0>         0.1472
@<TRIPOS>BOND
     1    1    2 1
     2    1   34 1
     3    1   35 1
     4    1   36 1
     5    2    3 1
     6    2   12 1
     7    2    4 1
     8    4    5 2
     9    4   13 1
    10    5    6 1
    11    5   37 1
    12    6   11 ar
    13    6    7 ar
    14    7    8 ar
    15    7   38 1
    16    8    9 ar
    17    8   39 1
    18    9   10 ar
    19    9   40 1
    20   10   11 ar
    21   10   41 1
    22   11   12 1
    23   13   14 2
    24   13   42 1
    25   14   15 1
    26   14   24 1
    27   15   16 2
    28   15   17 am
    29   17   18 1
    30   17   43 1
    31   18   23 1
    32   18   19 1
    33   18   44 1
    34   19   20 1
    35   19   45 1
    36   19   46 1
    37   20   21 1
    38   20   47 1
    39   20   48 1
    40   21   22 1
    41   21   49 1
    42   21   50 1
    43   22   23 1
    44   22   51 1
    45   22   52 1
    46   23   53 1
    47   23   54 1
    48   24   25 am
    49   24   55 1
    50   25   26 2
    51   25   27 1
    52   27   32 ar
    53   27   28 ar
    54   28   29 ar
    55   28   56 1
    56   29   30 ar
    57   29   57 1
    58   30   31 ar
    59   30   33 1
    60   31   32 ar
    61   31   58 1
    62   32   59 1
@<TRIPOS>MOLECULE
ZINC07125806
   38    40     0     0     0
SMALL
USER_CHARGES
N-(4-bromophenyl)-4-(1,3-dithian-2-yl)benzamide
@<TRIPOS>ATOM
      1 C1          3.6431   -6.2637   -0.4897 C.ar      1 <0>        -0.0976
      2 C2          3.6363   -4.8887   -0.3786 C.ar      1 <0>        -0.0544
      3 C3          2.4239   -4.2074   -0.2578 C.ar      1 <0>        -0.1260
      4 C4          1.2260   -4.9239   -0.2449 C.ar      1 <0>        -0.0839
      5 C5          1.2467   -6.2983   -0.3621 C.ar      1 <0>        -0.0893
      6 C6          2.4518   -6.9674   -0.4820 C.ar      1 <0>        -0.0344
      7 C7          2.4670   -8.4694   -0.6042 C.3       1 <0>         0.0103
      8 S1          1.5227   -8.9700   -2.0730 S.3       1 <0>        -0.2125
      9 C8          1.5376  -10.7820   -1.9971 C.3       1 <0>        -0.1006
     10 C9          0.8329  -11.2575   -0.7317 C.3       1 <0>        -0.1253
     11 C10         1.6870  -10.9837    0.5011 C.3       1 <0>        -0.1007
     12 S2          1.6986   -9.2075    0.8670 S.3       1 <0>        -0.2127
     13 C11         2.4091   -2.7342   -0.1379 C.2       1 <0>         0.5618
     14 O1          3.4542   -2.1133   -0.1444 O.2       1 <0>        -0.5085
     15 N1          1.2369   -2.0793   -0.0214 N.am      1 <0>        -0.6701
     16 C12         1.2143   -0.6807   -0.0192 C.ar      1 <0>         0.1634
     17 C13         0.2689   -0.0013    0.7382 C.ar      1 <0>        -0.1399
     18 C14         0.2487    1.3795    0.7381 C.ar      1 <0>        -0.0690
     19 C15         1.1690    2.0862   -0.0156 C.ar      1 <0>        -0.1066
     20 C16         2.1119    1.4120   -0.7712 C.ar      1 <0>        -0.0687
     21 C17         2.1369    0.0312   -0.7749 C.ar      1 <0>        -0.1158
     22 Br1         1.1381    3.9769   -0.0131 Br        1 <0>        -0.0485
     23 H1          4.5804   -6.7921   -0.5832 H         1 <0>         0.1359
     24 H2          4.5668   -4.3405   -0.3855 H         1 <0>         0.1442
     25 H3          0.2849   -4.4031   -0.1476 H         1 <0>         0.1316
     26 H4          0.3204   -6.8535   -0.3564 H         1 <0>         0.1431
     27 H5          3.4958   -8.8182   -0.6927 H         1 <0>         0.1135
     28 H6          2.5687  -11.1352   -1.9913 H         1 <0>         0.0861
     29 H7          1.0228  -11.1830   -2.8702 H         1 <0>         0.1185
     30 H8          0.6451  -12.3286   -0.8069 H         1 <0>         0.0890
     31 H9         -0.1179  -10.7338   -0.6325 H         1 <0>         0.0928
     32 H10         2.7068  -11.3217    0.3168 H         1 <0>         0.0861
     33 H11         1.2747  -11.5257    1.3522 H         1 <0>         0.1185
     34 H12         0.4089   -2.5779    0.0609 H         1 <0>         0.4134
     35 H13        -0.4494   -0.5524    1.3270 H         1 <0>         0.1364
     36 H14        -0.4891    1.9083    1.3234 H         1 <0>         0.1384
     37 H15         2.8291    1.9661   -1.3586 H         1 <0>         0.1376
     38 H16         2.8733   -0.4945   -1.3645 H         1 <0>         0.1439
@<TRIPOS>BOND
     1    1    6 ar
     2    1    2 ar
     3    1   23 1
     4    2    3 ar
     5    2   24 1
     6    3    4 ar
     7    3   13 1
     8    4    5 ar
     9    4   25 1
    10    5    6 ar
    11    5   26 1
    12    6    7 1
    13    7   12 1
    14    7    8 1
    15    7   27 1
    16    8    9 1
    17    9   10 1
    18    9   28 1
    19    9   29 1
    20   10   11 1
    21   10   30 1
    22   10   31 1
    23   11   12 1
    24   11   32 1
    25   11   33 1
    26   13   14 2
    27   13   15 am
    28   15   16 1
    29   15   34 1
    30   16   21 ar
    31   16   17 ar
    32   17   18 ar
    33   17   35 1
    34   18   19 ar
    35   18   36 1
    36   19   20 ar
    37   19   22 1
    38   20   21 ar
    39   20   37 1
    40   21   38 1
@<TRIPOS>MOLECULE
ZINC32581320
   26    27     0     0     0
SMALL
USER_CHARGES
N-[(5-bromo-3-thienyl)methyl]-2,4-dichloro-5-fluoro-benzamide
@<TRIPOS>ATOM
      1 C1          2.2203    1.0483   -0.0135 C.2       1 <0>        -0.1003
      2 C2          1.2997    2.0797    0.0008 C.2       1 <0>        -0.1494
      3 C3         -0.0221    1.7810    0.0118 C.2       1 <0>        -0.1369
      4 S1          0.0021   -0.0041    0.0020 S.3       1 <0>         0.1147
      5 C4          1.7726   -0.2320   -0.0161 C.2       1 <0>        -0.1782
      6 Br1         2.7661   -1.8409   -0.0342 Br        1 <0>         0.0441
      7 C5          1.7593    3.5149    0.0036 C.3       1 <0>         0.1816
      8 N1          1.9219    3.9729    1.3857 N.am      1 <0>        -0.7307
      9 C6          2.3284    5.2336    1.6344 C.2       1 <0>         0.5564
     10 O1          2.5603    5.9907    0.7119 O.2       1 <0>        -0.5056
     11 C7          2.4924    5.6954    3.0279 C.ar      1 <0>        -0.0950
     12 C8          2.2268    4.8279    4.0898 C.ar      1 <0>        -0.0996
     13 C9          2.3819    5.2655    5.3898 C.ar      1 <0>         0.1107
     14 C10         2.8010    6.5641    5.6421 C.ar      1 <0>        -0.0427
     15 C11         3.0655    7.4278    4.5938 C.ar      1 <0>        -0.0822
     16 C12         2.9192    6.9999    3.2889 C.ar      1 <0>         0.0109
     17 Cl1         3.2585    8.0830    1.9753 Cl        1 <0>        -0.0041
     18 Cl2         2.9939    7.1076    7.2795 Cl        1 <0>        -0.0234
     19 F1          2.1255    4.4279    6.4183 F         1 <0>        -0.1151
     20 H1          3.2795    1.2589   -0.0228 H         1 <0>         0.1442
     21 H2         -0.8703    2.4495    0.0197 H         1 <0>         0.1958
     22 H3          2.7213    3.5928   -0.5241 H         1 <0>         0.0817
     23 H4          1.0107    4.1406   -0.5044 H         1 <0>         0.0835
     24 H5          1.7122    3.2878    2.2204 H         1 <0>         0.4201
     25 H6          1.9012    3.8169    3.8942 H         1 <0>         0.1568
     26 H7          3.3911    8.4374    4.7964 H         1 <0>         0.1628
@<TRIPOS>BOND
     1    1    5 2
     2    1    2 1
     3    1   20 1
     4    2    3 2
     5    2    7 1
     6    3    4 1
     7    3   21 1
     8    4    5 1
     9    5    6 1
    10    7    8 1
    11    7   22 1
    12    7   23 1
    13    8    9 am
    14    8   24 1
    15    9   10 2
    16    9   11 1
    17   11   16 ar
    18   11   12 ar
    19   12   13 ar
    20   12   25 1
    21   13   14 ar
    22   13   19 1
    23   14   15 ar
    24   14   18 1
    25   15   16 ar
    26   15   26 1
    27   16   17 1
@<TRIPOS>MOLECULE
ZINC39506778
   35    37     0     0     0
SMALL
USER_CHARGES

@<TRIPOS>ATOM
      1 C1         -0.0167    1.3782    0.0096 C.ar      1 <0>        -0.1263
      2 C2          1.1700    2.0882    0.0021 C.ar      1 <0>        -0.1079
      3 C3          2.3773    1.4175   -0.0134 C.ar      1 <0>        -0.1434
      4 C4          2.3989    0.0301   -0.0210 C.ar      1 <0>         0.1073
      5 C5          1.2072   -0.6797   -0.0130 C.ar      1 <0>        -0.0957
      6 C6          0.0021   -0.0041    0.0020 C.ar      1 <0>        -0.1021
      7 C7          1.2269   -2.1866   -0.0218 C.3       1 <0>        -0.0456
      8 H1          2.2515   -2.5576   -0.0467 H         1 <0>         0.0987
      9 C8          0.4139   -2.7390   -1.2194 C.3       1 <0>        -0.1134
     10 C9          0.0036   -4.1599   -0.7756 C.3       1 <0>        -0.1011
     11 C10         0.0340   -4.1600    0.7576 C.3       1 <0>         0.0810
     12 C11         0.4676   -2.7527    1.2055 C.3       1 <0>        -0.1572
     13 C12        -1.3593   -4.4900    1.3186 C.3       1 <0>        -0.1238
     14 C13        -1.2447   -5.9999    1.6621 C.3       1 <0>        -0.0635
     15 H2         -1.4148   -6.6151    0.7786 H         1 <0>         0.1248
     16 C14         0.2272   -6.1038    2.1355 C.3       1 <0>         0.0345
     17 N1          0.9728   -5.1709    1.2611 N.3       1 <0>        -0.4271
     18 Br1         2.3718   -4.3790    2.1766 Br        1 <0>         0.0279
     19 Br2        -2.4858   -6.4895    3.1060 Br        1 <0>        -0.1302
     20 O1          3.5855   -0.6321   -0.0368 O.3       1 <0>        -0.4938
     21 H3         -0.9596    1.9045    0.0259 H         1 <0>         0.1245
     22 H4          1.1527    3.1681    0.0080 H         1 <0>         0.1259
     23 H5          3.3038    1.9724   -0.0200 H         1 <0>         0.1279
     24 H6         -0.9260   -0.5563    0.0079 H         1 <0>         0.1249
     25 H7         -0.4691   -2.1250   -1.3967 H         1 <0>         0.0697
     26 H8          1.0349   -2.7833   -2.1141 H         1 <0>         0.0727
     27 H9         -1.0019   -4.3868   -1.1298 H         1 <0>         0.0744
     28 H10         0.7116   -4.8921   -1.1638 H         1 <0>         0.0850
     29 H11         1.1287   -2.8105    2.0702 H         1 <0>         0.1035
     30 H12        -0.4049   -2.1395    1.4309 H         1 <0>         0.0811
     31 H13        -1.5630   -3.9046    2.2152 H         1 <0>         0.0886
     32 H14        -2.1285   -4.3232    0.5644 H         1 <0>         0.0979
     33 H15         0.3130   -5.7972    3.1780 H         1 <0>         0.0808
     34 H16         0.5962   -7.1213    2.0067 H         1 <0>         0.1122
     35 H17         3.9380   -0.8285    0.8420 H         1 <0>         0.3879
@<TRIPOS>BOND
     1    1    6 ar
     2    1    2 ar
     3    1   21 1
     4    2    3 ar
     5    2   22 1
     6    3    4 ar
     7    3   23 1
     8    4    5 ar
     9    4   20 1
    10    5    6 ar
    11    5    7 1
    12    6   24 1
    13    7    8 1
    14    7   12 1
    15    7    9 1
    16    9   10 1
    17    9   25 1
    18    9   26 1
    19   10   11 1
    20   10   27 1
    21   10   28 1
    22   11   17 1
    23   11   12 1
    24   11   13 1
    25   12   29 1
    26   12   30 1
    27   13   14 1
    28   13   31 1
    29   13   32 1
    30   14   15 1
    31   14   16 1
    32   14   19 1
    33   16   17 1
    34   16   33 1
    35   16   34 1
    36   17   18 1
    37   20   35 1
@<TRIPOS>MOLECULE
ZINC43640504
   36    38     0     0     0
SMALL
USER_CHARGES

@<TRIPOS>ATOM
      1 C1         -0.0187    1.5258    0.0104 C.3       1 <0>        -0.1491
      2 C2          0.0021   -0.0041    0.0020 C.3       1 <0>        -0.0439
      3 C3         -1.4117   -0.5257    0.0127 C.2       1 <0>        -0.1254
      4 C4         -2.2207   -0.8207   -1.0341 C.2       1 <0>        -0.1659
      5 C5         -3.4955   -1.2927   -0.7839 C.2       1 <0>        -0.1193
      6 C6         -3.8991   -1.4465    0.5009 C.2       1 <0>        -0.1689
      7 S1         -2.4530   -0.9228    1.4074 S.3       1 <0>         0.0704
      8 C7         -5.2230   -1.9376    1.0274 C.3       1 <0>         0.0893
      9 H1         -5.9099   -2.0928    0.1955 H         1 <0>         0.1344
     10 C8         -5.0205   -3.2383    1.7611 C.ar      1 <0>        -0.1494
     11 C9         -4.8548   -3.2377    3.1340 C.ar      1 <0>        -0.0404
     12 C10        -4.6697   -4.4279    3.8087 C.ar      1 <0>        -0.1282
     13 C11        -4.6498   -5.6277    3.1088 C.ar      1 <0>         0.2015
     14 C12        -4.8156   -5.6274    1.7309 C.ar      1 <0>        -0.1876
     15 C13        -5.0065   -4.4324    1.0599 C.ar      1 <0>         0.1553
     16 F1         -5.1737   -4.4302   -0.2807 F         1 <0>        -0.1266
     17 N1         -4.4623   -6.8320    3.7939 N.am      1 <0>        -0.6632
     18 C14        -4.6687   -6.9006    5.1218 C.2       1 <0>         0.5228
     19 O1         -4.4875   -7.9496    5.7031 O.2       1 <0>        -0.5173
     20 C15        -5.1212   -5.6908    5.8942 C.3       1 <0>        -0.1398
     21 C16        -4.4893   -4.4299    5.3046 C.3       1 <0>        -0.0773
     22 Br1        -5.9753   -0.6014    2.2578 Br        1 <0>        -0.1157
     23 H2          1.0039    1.9031    0.0027 H         1 <0>         0.0655
     24 H3         -0.5459    1.8868   -0.8726 H         1 <0>         0.0596
     25 H4         -0.5289    1.8773    0.9072 H         1 <0>         0.0587
     26 H5          0.5123   -0.3556   -0.8948 H         1 <0>         0.0882
     27 H6          0.5293   -0.3651    0.8851 H         1 <0>         0.0803
     28 H7         -1.8744   -0.6887   -2.0486 H         1 <0>         0.1355
     29 H8         -4.1603   -1.5349   -1.5999 H         1 <0>         0.1351
     30 H9         -4.8699   -2.3053    3.6788 H         1 <0>         0.1507
     31 H10        -4.8005   -6.5586    1.1840 H         1 <0>         0.1473
     32 H11        -4.1818   -7.6236    3.3085 H         1 <0>         0.4145
     33 H12        -6.2068   -5.6110    5.8384 H         1 <0>         0.1077
     34 H13        -4.8201   -5.7935    6.9367 H         1 <0>         0.1144
     35 H14        -3.4257   -4.4124    5.5422 H         1 <0>         0.0888
     36 H15        -4.9708   -3.5491    5.7296 H         1 <0>         0.0980
@<TRIPOS>BOND
     1    1    2 1
     2    1   23 1
     3    1   24 1
     4    1   25 1
     5    2    3 1
     6    2   26 1
     7    2   27 1
     8    3    7 1
     9    3    4 2
    10    4    5 1
    11    4   28 1
    12    5    6 2
    13    5   29 1
    14    6    7 1
    15    6    8 1
    16    8    9 1
    17    8   10 1
    18    8   22 1
    19   10   15 ar
    20   10   11 ar
    21   11   12 ar
    22   11   30 1
    23   12   21 1
    24   12   13 ar
    25   13   14 ar
    26   13   17 1
    27   14   15 ar
    28   14   31 1
    29   15   16 1
    30   17   18 am
    31   17   32 1
    32   18   19 2
    33   18   20 1
    34   20   21 1
    35   20   33 1
    36   20   34 1
    37   21   35 1
    38   21   36 1
@<TRIPOS>MOLECULE
ZINC60725973
   28    28     0     0     0
SMALL
USER_CHARGES

@<TRIPOS>ATOM
      1 C1         -0.6102    1.4171    1.0717 C.3       1 <0>        -0.1599
      2 C2         -0.6648   -0.1118    1.0515 C.3       1 <0>        -0.1106
      3 C3         -1.9352   -0.5672    0.3306 C.3       1 <0>        -0.0755
      4 H1         -1.9706   -0.1179   -0.6619 H         1 <0>         0.1246
      5 C4         -1.9290   -2.0687    0.2022 C.2       1 <0>         0.5193
      6 O1         -1.6213   -2.7573    1.1521 O.2       1 <0>        -0.4896
      7 N1         -2.2655   -2.6464   -0.9680 N.am      1 <0>        -0.6627
      8 C5         -2.1491   -4.0324   -1.1231 C.ar      1 <0>         0.1643
      9 C6         -1.2506   -4.7470   -0.3413 C.ar      1 <0>        -0.1229
     10 C7         -1.1383   -6.1145   -0.4963 C.ar      1 <0>        -0.0678
     11 C8         -1.9195   -6.7729   -1.4292 C.ar      1 <0>        -0.1124
     12 C9         -2.8151   -6.0639   -2.2092 C.ar      1 <0>        -0.0642
     13 C10        -2.9356   -4.6965   -2.0549 C.ar      1 <0>        -0.1100
     14 C11        -3.9161   -3.9256   -2.9007 C.3       1 <0>        -0.1175
     15 I1         -1.7453   -8.8477   -1.6615 I         1 <0>        -0.0408
     16 Br1        -3.5115   -0.0040    1.3616 Br        1 <0>        -0.0978
     17 H2          0.2948    1.7416    1.5853 H         1 <0>         0.0684
     18 H3         -0.6025    1.7940    0.0489 H         1 <0>         0.0591
     19 H4         -1.4840    1.8050    1.5952 H         1 <0>         0.0678
     20 H5          0.2090   -0.4997    0.5279 H         1 <0>         0.0832
     21 H6         -0.6725   -0.4886    2.0742 H         1 <0>         0.0899
     22 H7         -2.5884   -2.1016   -1.7027 H         1 <0>         0.4149
     23 H8         -0.6403   -4.2336    0.3868 H         1 <0>         0.1530
     24 H9         -0.4396   -6.6707    0.1111 H         1 <0>         0.1336
     25 H10        -3.4234   -6.5804   -2.9369 H         1 <0>         0.1344
     26 H11        -3.4263   -3.5988   -3.8180 H         1 <0>         0.0761
     27 H12        -4.7632   -4.5651   -3.1490 H         1 <0>         0.0772
     28 H13        -4.2680   -3.0552   -2.3468 H         1 <0>         0.0660
@<TRIPOS>BOND
     1    1    2 1
     2    1   17 1
     3    1   18 1
     4    1   19 1
     5    2    3 1
     6    2   20 1
     7    2   21 1
     8    3    4 1
     9    3    5 1
    10    3   16 1
    11    5    6 2
    12    5    7 am
    13    7    8 1
    14    7   22 1
    15    8   13 ar
    16    8    9 ar
    17    9   10 ar
    18    9   23 1
    19   10   11 ar
    20   10   24 1
    21   11   12 ar
    22   11   15 1
    23   12   13 ar
    24   12   25 1
    25   13   14 1
    26   14   26 1
    27   14   27 1
    28   14   28 1
@<TRIPOS>MOLECULE
ZINC17314760
   50    53     0     0     0
SMALL
USER_CHARGES
N-[[1-benzyl-3-(3-pyridyl)pyrazol-4-yl]methyl]-2-(2-thienyl)ethanamine
@<TRIPOS>ATOM
      1 C1         11.1083   -0.9768    1.5232 C.ar      1 <0>        -0.0990
      2 C2         11.2076   -1.9258    0.5230 C.ar      1 <0>        -0.1205
      3 C3         10.7999   -1.6207   -0.7621 C.ar      1 <0>        -0.0815
      4 C4         10.2928   -0.3667   -1.0470 C.ar      1 <0>        -0.1280
      5 C5         10.1983    0.5840   -0.0480 C.ar      1 <0>        -0.0983
      6 C6         10.6012    0.2772    1.2383 C.ar      1 <0>        -0.1217
      7 C7          9.8486   -0.0340   -2.4482 C.3       1 <0>         0.1695
      8 N1          8.4321   -0.3733   -2.6049 N.pl3     1 <0>        -0.3416
      9 C8          7.4573    0.4654   -3.0169 C.2       1 <0>         0.1151
     10 C9          6.2941   -0.2213   -3.0294 C.2       1 <0>        -0.3131
     11 C10         6.5642   -1.5358   -2.6017 C.2       1 <0>         0.1339
     12 N2          7.8537   -1.6240   -2.3531 N.2       1 <0>        -0.2463
     13 C11         5.5709   -2.6296   -2.4603 C.ar      1 <0>        -0.0968
     14 C12         5.8700   -3.9216   -2.9009 C.ar      1 <0>        -0.0427
     15 C13         4.9099   -4.9066   -2.7466 C.ar      1 <0>        -0.1622
     16 C14         3.6964   -4.5836   -2.1667 C.ar      1 <0>         0.1183
     17 N3          3.4431   -3.3549   -1.7600 N.ar      1 <0>        -0.4733
     18 C15         4.3278   -2.3861   -1.8812 C.ar      1 <0>         0.1102
     19 C16         4.9459    0.3238   -3.4246 C.3       1 <0>         0.0881
     20 C17         3.2153    0.2170   -5.1146 C.3       1 <0>        -0.0054
     21 C18         2.8684   -0.3395   -6.4970 C.3       1 <0>        -0.0511
     22 C19         1.4709    0.0818   -6.8719 C.2       1 <0>        -0.1922
     23 C20         1.0624    1.1931   -7.5317 C.2       1 <0>        -0.1224
     24 C21        -0.2878    1.3768   -7.7634 C.2       1 <0>        -0.1701
     25 C22        -1.1626    0.4347   -7.3339 C.2       1 <0>        -0.1438
     26 S1         -0.0762   -0.7538   -6.5628 S.3       1 <0>         0.0599
     27 H1         11.4272   -1.2150    2.5272 H         1 <0>         0.1285
     28 H2         11.6042   -2.9054    0.7455 H         1 <0>         0.1285
     29 H3         10.8778   -2.3620   -1.5437 H         1 <0>         0.1243
     30 H4          9.8062    1.5651   -0.2715 H         1 <0>         0.1213
     31 H5         10.5239    1.0188    2.0197 H         1 <0>         0.1281
     32 H6         10.4405   -0.6063   -3.1625 H         1 <0>         0.1059
     33 H7          9.9894    1.0313   -2.6306 H         1 <0>         0.1157
     34 H8          7.5851    1.5029   -3.2885 H         1 <0>         0.1894
     35 H9          6.8259   -4.1458   -3.3508 H         1 <0>         0.1422
     36 H10         5.1062   -5.9165   -3.0752 H         1 <0>         0.1477
     37 H11         2.9449   -5.3495   -2.0447 H         1 <0>         0.1671
     38 H12         4.0852   -1.3932   -1.5323 H         1 <0>         0.1565
     39 H13         4.9901    1.4124   -3.4592 H         1 <0>         0.1393
     40 H14         4.1998    0.0136   -2.6930 H         1 <0>         0.1335
     41 H15         3.1572    1.3053   -5.1360 H         1 <0>         0.1376
     42 H16         2.5096   -0.1701   -4.3796 H         1 <0>         0.1345
     43 H17         2.9265   -1.4277   -6.4756 H         1 <0>         0.0988
     44 H18         3.5741    0.0476   -7.2320 H         1 <0>         0.1062
     45 H19         1.7809    1.9263   -7.8675 H         1 <0>         0.1355
     46 H20        -0.6402    2.2558   -8.2826 H         1 <0>         0.1416
     47 H21        -2.2382    0.4115   -7.4288 H         1 <0>         0.1929
     48 N4          4.5840   -0.1996   -4.7554 N.4       1 <0>        -0.5199
     49 H22         4.6331   -1.2251   -4.7408 H         1 <0>         0.4286
     50 H23         5.2431    0.1648   -5.4533 H         1 <0>         0.4311
@<TRIPOS>BOND
     1    1    6 ar
     2    1    2 ar
     3    1   27 1
     4    2    3 ar
     5    2   28 1
     6    3    4 ar
     7    3   29 1
     8    4    5 ar
     9    4    7 1
    10    5    6 ar
    11    5   30 1
    12    6   31 1
    13    7    8 1
    14    7   32 1
    15    7   33 1
    16    8   12 1
    17    8    9 1
    18    9   10 2
    19    9   34 1
    20   10   11 1
    21   10   19 1
    22   11   12 2
    23   11   13 1
    24   13   18 ar
    25   13   14 ar
    26   14   15 ar
    27   14   35 1
    28   15   16 ar
    29   15   36 1
    30   16   17 ar
    31   16   37 1
    32   17   18 ar
    33   18   38 1
    34   19   39 1
    35   19   40 1
    36   19   48 1
    37   20   21 1
    38   20   41 1
    39   20   42 1
    40   20   48 1
    41   21   22 1
    42   21   43 1
    43   21   44 1
    44   22   26 1
    45   22   23 2
    46   23   24 1
    47   23   45 1
    48   24   25 2
    49   24   46 1
    50   25   26 1
    51   25   47 1
    52   48   49 1
    53   48   50 1
@<TRIPOS>MOLECULE
ZINC38675180
   56    59     0     0     0
SMALL
USER_CHARGES

@<TRIPOS>ATOM
      1 C1         -0.0567    1.6978    0.2044 C.3       1 <0>         0.0540
      2 N1          0.1161    0.2507    0.0549 N.pl3     1 <0>        -0.4235
      3 C2          0.2666   -0.4135   -1.1262 C.2       1 <0>         0.0293
      4 C3          0.3977   -1.7283   -0.8568 C.2       1 <0>        -0.1858
      5 C4          0.3254   -1.8814    0.5419 C.2       1 <0>        -0.1973
      6 C5          0.1588   -0.6537    1.0743 C.2       1 <0>        -0.0456
      7 C6          0.0367   -0.3366    2.5424 C.3       1 <0>         0.1077
      8 H1         -0.9319    0.1246    2.7352 H         1 <0>         0.1461
      9 C7          1.1514    0.6290    2.9500 C.3       1 <0>         0.0941
     10 N2          1.0781    0.8788    4.3917 N.am      1 <0>        -0.7503
     11 C8          2.0281    1.6192    4.9965 C.2       1 <0>         0.5434
     12 O1          2.9436    2.0787    4.3472 O.2       1 <0>        -0.4988
     13 C9          1.9527    1.8762    6.4795 C.3       1 <0>         0.0085
     14 C10         2.0595    0.5455    7.2525 C.3       1 <0>        -0.1058
     15 C11         3.5602    0.4398    7.6211 C.3       1 <0>        -0.1261
     16 C12         3.9343    1.9054    7.9546 C.3       1 <0>        -0.1240
     17 C13         3.1447    2.7408    6.9259 C.3       1 <0>        -0.1184
     18 C14         0.6575    2.5684    6.8179 C.2       1 <0>        -0.1551
     19 C15        -0.6144    2.1463    6.6146 C.2       1 <0>        -0.1511
     20 C16        -1.6613    2.9572    7.0111 C.2       1 <0>        -0.1654
     21 C17        -1.3850    4.1505    7.5916 C.2       1 <0>        -0.1643
     22 S1          0.4003    4.1537    7.5977 S.3       1 <0>         0.0889
     23 N3          0.1530   -1.5759    3.3224 N.4       1 <0>        -0.3833
     24 C18        -0.9288   -2.5215    2.9458 C.3       1 <0>        -0.0286
     25 C19        -0.3658   -3.8969    3.3837 C.3       1 <0>        -0.1434
     26 C20         1.1384   -3.7778    3.0471 C.3       1 <0>        -0.1435
     27 C21         1.4213   -2.2648    2.9994 C.3       1 <0>        -0.0328
     28 H2          0.9198    2.1722    0.3013 H         1 <0>         0.0875
     29 H3         -0.5683    2.0951   -0.6722 H         1 <0>         0.1014
     30 H4         -0.6502    1.9027    1.0954 H         1 <0>         0.0851
     31 H5          0.2785    0.0358   -2.1083 H         1 <0>         0.1788
     32 H6          0.5332   -2.5187   -1.5803 H         1 <0>         0.1520
     33 H7          0.3953   -2.8108    1.0876 H         1 <0>         0.1526
     34 H8          2.1190    0.1907    2.7060 H         1 <0>         0.1039
     35 H9          1.0323    1.5693    2.4118 H         1 <0>         0.1089
     36 H10         0.3458    0.5114    4.9110 H         1 <0>         0.3943
     37 H11         1.4467    0.5774    8.1534 H         1 <0>         0.0906
     38 H12         1.7629   -0.2894    6.6176 H         1 <0>         0.0629
     39 H13         3.7000   -0.2021    8.4909 H         1 <0>         0.0803
     40 H14         4.1414    0.0760    6.7738 H         1 <0>         0.0705
     41 H15         3.6243    2.1569    8.9689 H         1 <0>         0.0742
     42 H16         5.0059    2.0629    7.8321 H         1 <0>         0.0783
     43 H17         3.7777    2.9746    6.0699 H         1 <0>         0.0994
     44 H18         2.7864    3.6607    7.3881 H         1 <0>         0.0753
     45 H19        -0.8071    1.1909    6.1493 H         1 <0>         0.1163
     46 H20        -2.6840    2.6448    6.8604 H         1 <0>         0.1360
     47 H21        -2.0677    4.9025    7.9588 H         1 <0>         0.1906
     48 H22        -1.8465   -2.2915    3.4870 H         1 <0>         0.1359
     49 H23        -1.1002   -2.5010    1.8695 H         1 <0>         0.1558
     50 H24        -0.5107   -4.0503    4.4530 H         1 <0>         0.0993
     51 H25        -0.8264   -4.7022    2.8115 H         1 <0>         0.1203
     52 H26         1.7386   -4.2505    3.8245 H         1 <0>         0.1083
     53 H27         1.3465   -4.2323    2.0785 H         1 <0>         0.1079
     54 H28         1.7544   -1.9806    2.0012 H         1 <0>         0.1515
     55 H29         2.1824   -2.0059    3.7355 H         1 <0>         0.1298
     56 H30         0.1096   -1.3716    4.3096 H         1 <0>         0.4234
@<TRIPOS>BOND
     1    1    2 1
     2    1   28 1
     3    1   29 1
     4    1   30 1
     5    2    6 1
     6    2    3 1
     7    3    4 2
     8    3   31 1
     9    4    5 1
    10    4   32 1
    11    5    6 2
    12    5   33 1
    13    6    7 1
    14    7    8 1
    15    7    9 1
    16    7   23 1
    17    9   10 1
    18    9   34 1
    19    9   35 1
    20   10   11 am
    21   10   36 1
    22   11   12 2
    23   11   13 1
    24   13   17 1
    25   13   14 1
    26   13   18 1
    27   14   15 1
    28   14   37 1
    29   14   38 1
    30   15   16 1
    31   15   39 1
    32   15   40 1
    33   16   17 1
    34   16   41 1
    35   16   42 1
    36   17   43 1
    37   17   44 1
    38   18   22 1
    39   18   19 2
    40   19   20 1
    41   19   45 1
    42   20   21 2
    43   20   46 1
    44   21   22 1
    45   21   47 1
    46   23   27 1
    47   23   24 1
    48   23   56 1
    49   24   25 1
    50   24   48 1
    51   24   49 1
    52   25   26 1
    53   25   50 1
    54   25   51 1
    55   26   27 1
    56   26   52 1
    57   26   53 1
    58   27   54 1
    59   27   55 1
@<TRIPOS>MOLECULE
ZINC22803562
   59    62     0     0     0
SMALL
USER_CHARGES

@<TRIPOS>ATOM
      1 C1          0.4569   -0.3199   -1.4243 C.3       1 <0>        -0.1890
      2 C2          0.0021   -0.0041    0.0020 C.3       1 <0>         0.0657
      3 H1          0.7172   -0.4197    0.7119 H         1 <0>         0.1182
      4 C3         -0.0769    1.4897    0.1849 C.2       1 <0>         0.5227
      5 O1         -1.1567    2.0411    0.2115 O.2       1 <0>        -0.5237
      6 N1          1.0525    2.2128    0.3189 N.am      1 <0>        -0.7260
      7 C4          0.9758    3.6650    0.4967 C.3       1 <0>         0.1241
      8 C5          2.3885    4.2387    0.6232 C.3       1 <0>        -0.0443
      9 C6          2.3096    5.7325    0.8061 C.2       1 <0>        -0.1548
     10 C7          2.2297    6.4488    1.9540 C.2       1 <0>        -0.1457
     11 C8          2.1672    7.8277    1.8807 C.2       1 <0>        -0.1606
     12 C9          2.1875    8.4228    0.6630 C.2       1 <0>        -0.1632
     13 S1          2.3048    7.0181   -0.4326 S.3       1 <0>         0.0389
     14 N2         -1.3215   -0.5967    0.2364 N.3       1 <0>        -0.5168
     15 C10        -1.2198   -2.0487    0.4402 C.3       1 <0>         0.0243
     16 C11        -2.6086   -2.6173    0.7396 C.3       1 <0>        -0.0020
     17 N3         -3.5099   -2.3250   -0.3829 N.4       1 <0>        -0.3875
     18 C12        -3.6205   -0.8708   -0.5583 C.3       1 <0>        -0.0017
     19 C13        -2.2401   -0.2878   -0.8685 C.3       1 <0>         0.0185
     20 C14        -4.8381   -2.8866   -0.1031 C.3       1 <0>         0.0453
     21 C15        -5.7278   -2.6948   -1.3042 C.ar      1 <0>        -0.1606
     22 C16        -6.6260   -1.6724   -1.3340 C.ar      1 <0>        -0.0589
     23 C17        -7.4568   -1.4793   -2.4357 C.ar      1 <0>        -0.1311
     24 C18        -7.3949   -2.3078   -3.5141 C.ar      1 <0>        -0.0589
     25 C19        -6.4802   -3.3743   -3.5196 C.ar      1 <0>        -0.0582
     26 C20        -5.6306   -3.5669   -2.4014 C.ar      1 <0>        -0.0300
     27 C21        -4.7116   -4.6303   -2.4096 C.ar      1 <0>        -0.1517
     28 C22        -4.6456   -5.4549   -3.4902 C.ar      1 <0>        -0.0789
     29 C23        -5.4765   -5.2616   -4.5924 C.ar      1 <0>        -0.1172
     30 C24        -6.3876   -4.2508   -4.6144 C.ar      1 <0>        -0.0842
     31 H2          1.4390    0.1199   -1.5982 H         1 <0>         0.0817
     32 H3          0.5140   -1.4003   -1.5565 H         1 <0>         0.0717
     33 H4         -0.2582    0.0958   -2.1341 H         1 <0>         0.0711
     34 H5          1.9162    1.7718    0.2977 H         1 <0>         0.4034
     35 H6          0.4784    4.1107   -0.3646 H         1 <0>         0.0747
     36 H7          0.4096    3.8910    1.4004 H         1 <0>         0.0767
     37 H8          2.8859    3.7929    1.4846 H         1 <0>         0.0941
     38 H9          2.9547    4.0127   -0.2804 H         1 <0>         0.0870
     39 H10         2.2149    5.9497    2.9116 H         1 <0>         0.1333
     40 H11         2.1027    8.4221    2.7801 H         1 <0>         0.1368
     41 H12         2.1474    9.4741    0.4190 H         1 <0>         0.1883
     42 H13        -0.8222   -2.5155   -0.4610 H         1 <0>         0.0631
     43 H14        -0.5548   -2.2525    1.2795 H         1 <0>         0.1254
     44 H15        -2.5376   -3.6962    0.8770 H         1 <0>         0.1364
     45 H16        -3.0001   -2.1603    1.6484 H         1 <0>         0.1405
     46 H17        -4.2997   -0.6551   -1.3831 H         1 <0>         0.1335
     47 H18        -4.0069   -0.4228    0.3571 H         1 <0>         0.1391
     48 H19        -2.3195    0.7932   -0.9840 H         1 <0>         0.1418
     49 H20        -1.8593   -0.7255   -1.7912 H         1 <0>         0.0610
     50 H21        -4.7444   -3.9508    0.1134 H         1 <0>         0.1370
     51 H22        -5.2739   -2.3779    0.7568 H         1 <0>         0.1392
     52 H23        -6.6958   -1.0009   -0.4910 H         1 <0>         0.1342
     53 H24        -8.1608   -0.6603   -2.4340 H         1 <0>         0.1380
     54 H25        -8.0456   -2.1464   -4.3607 H         1 <0>         0.1399
     55 H26        -4.0609   -4.7920   -1.5629 H         1 <0>         0.1181
     56 H27        -3.9385   -6.2713   -3.4939 H         1 <0>         0.1317
     57 H28        -5.4036   -5.9303   -5.4373 H         1 <0>         0.1340
     58 H29        -7.0255   -4.1136   -5.4751 H         1 <0>         0.1377
     59 H30        -3.1413   -2.7382   -1.2263 H         1 <0>         0.4177
@<TRIPOS>BOND
     1    1    2 1
     2    1   31 1
     3    1   32 1
     4    1   33 1
     5    2    3 1
     6    2    4 1
     7    2   14 1
     8    4    5 2
     9    4    6 am
    10    6    7 1
    11    6   34 1
    12    7    8 1
    13    7   35 1
    14    7   36 1
    15    8    9 1
    16    8   37 1
    17    8   38 1
    18    9   13 1
    19    9   10 2
    20   10   11 1
    21   10   39 1
    22   11   12 2
    23   11   40 1
    24   12   13 1
    25   12   41 1
    26   14   19 1
    27   14   15 1
    28   15   16 1
    29   15   42 1
    30   15   43 1
    31   16   17 1
    32   16   44 1
    33   16   45 1
    34   17   18 1
    35   17   20 1
    36   17   59 1
    37   18   19 1
    38   18   46 1
    39   18   47 1
    40   19   48 1
    41   19   49 1
    42   20   21 1
    43   20   50 1
    44   20   51 1
    45   21   26 ar
    46   21   22 ar
    47   22   23 ar
    48   22   52 1
    49   23   24 ar
    50   23   53 1
    51   24   25 ar
    52   24   54 1
    53   25   30 ar
    54   25   26 ar
    55   26   27 ar
    56   27   28 ar
    57   27   55 1
    58   28   29 ar
    59   28   56 1
    60   29   30 ar
    61   29   57 1
    62   30   58 1
@<TRIPOS>MOLECULE
ZINC62427037
   58    60     0     0     0
SMALL
USER_CHARGES

@<TRIPOS>ATOM
      1 C1         -0.0184    1.5028    0.0103 C.3       1 <0>        -0.0734
      2 C2          0.0021   -0.0041    0.0020 C.2       1 <0>         0.0760
      3 C3          0.0080   -0.8179   -1.1355 C.2       1 <0>        -0.2498
      4 C4          0.0279   -2.1072   -0.7249 C.2       1 <0>         0.1147
      5 N1          0.0343   -2.1090    0.6245 N.pl3     1 <0>        -0.3592
      6 N2          0.0231   -0.7768    1.0576 N.2       1 <0>        -0.2739
      7 C5          0.0548   -3.2948    1.4847 C.3       1 <0>         0.1701
      8 C6          1.4825   -3.6816    1.7729 C.ar      1 <0>        -0.1132
      9 C7          2.1111   -4.6352    0.9941 C.ar      1 <0>        -0.0887
     10 C8          3.4205   -4.9901    1.2583 C.ar      1 <0>        -0.1183
     11 C9          4.1025   -4.3917    2.3016 C.ar      1 <0>        -0.0944
     12 C10         3.4752   -3.4382    3.0808 C.ar      1 <0>        -0.1146
     13 C11         2.1662   -3.0784    2.8132 C.ar      1 <0>        -0.0117
     14 Cl1         1.3796   -1.8760    3.7875 Cl        1 <0>        -0.0467
     15 C12         0.0401   -3.3230   -1.6152 C.3       1 <0>        -0.0928
     16 C13        -0.0061   -0.3430   -2.5656 C.3       1 <0>         0.1453
     17 N3          1.3741   -0.1693   -3.0375 N.3       1 <0>        -0.6820
     18 C14         1.3996    0.2941   -4.4313 C.3       1 <0>         0.0590
     19 C15         2.8506    0.4630   -4.8862 C.3       1 <0>        -0.1057
     20 C16         3.5062    1.6575   -4.1560 C.3       1 <0>        -0.1451
     21 C17         4.3675    2.3115   -5.2655 C.3       1 <0>        -0.0040
     22 N4          3.5248    2.1661   -6.4800 N.4       1 <0>        -0.3925
     23 C18         2.9030    0.8278   -6.3814 C.3       1 <0>        -0.0046
     24 C19         4.3574    2.2501   -7.6873 C.3       1 <0>         0.0276
     25 C20         3.4794    2.0632   -8.9263 C.3       1 <0>        -0.1831
     26 C21         5.0356    3.6203   -7.7448 C.3       1 <0>        -0.1830
     27 H1          1.0042    1.8801    0.0026 H         1 <0>         0.0723
     28 H2         -0.5455    1.8639   -0.8728 H         1 <0>         0.0712
     29 H3         -0.5286    1.8543    0.9071 H         1 <0>         0.0755
     30 H4         -0.4577   -3.0734    2.4209 H         1 <0>         0.1102
     31 H5         -0.4500   -4.1185    0.9800 H         1 <0>         0.1060
     32 H6          1.5787   -5.1033    0.1793 H         1 <0>         0.1315
     33 H7          3.9111   -5.7354    0.6498 H         1 <0>         0.1327
     34 H8          5.1256   -4.6696    2.5078 H         1 <0>         0.1354
     35 H9          4.0079   -2.9710    3.8959 H         1 <0>         0.1366
     36 H10         1.0706   -3.6020   -1.8350 H         1 <0>         0.0830
     37 H11        -0.4598   -4.1489   -1.1091 H         1 <0>         0.0691
     38 H12        -0.4816   -3.0976   -2.5453 H         1 <0>         0.0839
     39 H13        -0.5129   -1.0802   -3.1883 H         1 <0>         0.0777
     40 H14        -0.5336    0.6089   -2.6271 H         1 <0>         0.0390
     41 H15         1.8848    0.4611   -2.4375 H         1 <0>         0.3430
     42 H16         0.9025   -0.4387   -5.0669 H         1 <0>         0.0852
     43 H17         0.8818    1.2504   -4.5058 H         1 <0>         0.0358
     44 H18         3.4137   -0.4515   -4.6999 H         1 <0>         0.1208
     45 H19         2.7479    2.3530   -3.7962 H         1 <0>         0.0955
     46 H20         4.1336    1.3105   -3.3349 H         1 <0>         0.1186
     47 H21         4.5454    3.3639   -5.0444 H         1 <0>         0.1344
     48 H22         5.3104    1.7778   -5.3854 H         1 <0>         0.1338
     49 H23         3.5060    0.0974   -6.9209 H         1 <0>         0.1329
     50 H24         1.8938    0.8561   -6.7923 H         1 <0>         0.1313
     51 H25         5.1175    1.4693   -7.6595 H         1 <0>         0.1352
     52 H26         2.7193    2.8439   -8.9541 H         1 <0>         0.0800
     53 H27         4.0972    2.1255   -9.8222 H         1 <0>         0.1045
     54 H28         2.9963    1.0870   -8.8854 H         1 <0>         0.0804
     55 H29         5.6611    3.7535   -6.8621 H         1 <0>         0.0803
     56 H30         5.6534    3.6827   -8.6407 H         1 <0>         0.1046
     57 H31         4.2755    4.4011   -7.7726 H         1 <0>         0.0799
     58 H32         2.8124    2.8804   -6.4967 H         1 <0>         0.4235
@<TRIPOS>BOND
     1    1    2 1
     2    1   27 1
     3    1   28 1
     4    1   29 1
     5    2    6 2
     6    2    3 1
     7    3    4 2
     8    3   16 1
     9    4    5 1
    10    4   15 1
    11    5    6 1
    12    5    7 1
    13    7    8 1
    14    7   30 1
    15    7   31 1
    16    8   13 ar
    17    8    9 ar
    18    9   10 ar
    19    9   32 1
    20   10   11 ar
    21   10   33 1
    22   11   12 ar
    23   11   34 1
    24   12   13 ar
    25   12   35 1
    26   13   14 1
    27   15   36 1
    28   15   37 1
    29   15   38 1
    30   16   17 1
    31   16   39 1
    32   16   40 1
    33   17   18 1
    34   17   41 1
    35   18   19 1
    36   18   42 1
    37   18   43 1
    38   19   23 1
    39   19   20 1
    40   19   44 1
    41   20   21 1
    42   20   45 1
    43   20   46 1
    44   21   22 1
    45   21   47 1
    46   21   48 1
    47   22   23 1
    48   22   24 1
    49   22   58 1
    50   23   49 1
    51   23   50 1
    52   24   25 1
    53   24   26 1
    54   24   51 1
    55   25   52 1
    56   25   53 1
    57   25   54 1
    58   26   55 1
    59   26   56 1
    60   26   57 1
@<TRIPOS>MOLECULE
ZINC67183866
   53    56     0     0     0
SMALL
USER_CHARGES

@<TRIPOS>ATOM
      1 C1         -4.0988    0.6799    0.8260 C.3       1 <0>         0.0872
      2 N1         -3.4140   -0.6126    0.7447 N.pl3     1 <0>        -0.3488
      3 C2         -2.6709   -1.0517   -0.2939 C.2       1 <0>         0.1164
      4 C3         -2.2121   -2.2845    0.0135 C.2       1 <0>        -0.3127
      5 C4         -2.6934   -2.6173    1.2946 C.2       1 <0>         0.1379
      6 N2         -3.4114   -1.6051    1.7331 N.2       1 <0>        -0.2564
      7 C5         -2.4315   -3.8830    2.0242 C.ar      1 <0>        -0.0975
      8 C6         -1.1744   -4.4905    1.9634 C.ar      1 <0>        -0.0699
      9 C7         -0.9808   -5.6700    2.6616 C.ar      1 <0>        -0.1664
     10 C8         -2.0279   -6.2045    3.3901 C.ar      1 <0>         0.1219
     11 N3         -3.2035   -5.6081    3.4285 N.ar      1 <0>        -0.4728
     12 C9         -3.4329   -4.4815    2.7851 C.ar      1 <0>         0.1389
     13 C10        -1.3406   -3.1502   -0.8596 C.3       1 <0>         0.0830
     14 N4         -2.1455   -4.2395   -1.4282 N.4       1 <0>        -0.5093
     15 C11        -1.2764   -5.1412   -2.1960 C.3       1 <0>        -0.0053
     16 C12        -2.1148   -6.2759   -2.7882 C.3       1 <0>        -0.0168
     17 C13        -3.0881   -5.7110   -3.7905 C.ar      1 <0>        -0.1227
     18 C14        -4.4388   -5.9783   -3.6687 C.ar      1 <0>        -0.1095
     19 C15        -5.3316   -5.4601   -4.5881 C.ar      1 <0>        -0.1097
     20 C16        -4.8737   -4.6742   -5.6290 C.ar      1 <0>        -0.1033
     21 C17        -3.5230   -4.4061   -5.7503 C.ar      1 <0>        -0.1104
     22 C18        -2.6307   -4.9208   -4.8285 C.ar      1 <0>        -0.1183
     23 C19        -1.2079   -7.2665   -3.4718 C.ar      1 <0>        -0.0918
     24 C20        -0.2816   -6.8293   -4.4002 C.ar      1 <0>        -0.1156
     25 C21         0.5502   -7.7380   -5.0273 C.ar      1 <0>        -0.1123
     26 C22         0.4561   -9.0838   -4.7257 C.ar      1 <0>        -0.1052
     27 C23        -0.4696   -9.5208   -3.7967 C.ar      1 <0>        -0.1109
     28 C24        -1.2985   -8.6116   -3.1665 C.ar      1 <0>        -0.1038
     29 H1         -3.4287    1.4191    1.2649 H         1 <0>         0.0909
     30 H2         -4.3889    1.0010   -0.1744 H         1 <0>         0.1008
     31 H3         -4.9884    0.5812    1.4481 H         1 <0>         0.1026
     32 H4         -2.4776   -0.5122   -1.2093 H         1 <0>         0.1904
     33 H5         -0.3744   -4.0511    1.3862 H         1 <0>         0.1379
     34 H6         -0.0226   -6.1676    2.6373 H         1 <0>         0.1478
     35 H7         -1.8806   -7.1248    3.9357 H         1 <0>         0.1669
     36 H8         -4.4076   -4.0202    2.8446 H         1 <0>         0.1628
     37 H9         -0.9224   -2.5481   -1.6663 H         1 <0>         0.1394
     38 H10        -0.5311   -3.5700   -0.2624 H         1 <0>         0.1349
     39 H11        -2.5893   -4.7544   -0.6825 H         1 <0>         0.4242
     40 H12        -0.7970   -4.5851   -3.0016 H         1 <0>         0.1357
     41 H13        -0.5137   -5.5581   -1.5383 H         1 <0>         0.1404
     42 H14        -2.6640   -6.7763   -1.9907 H         1 <0>         0.1068
     43 H15        -4.7966   -6.5923   -2.8554 H         1 <0>         0.1268
     44 H16        -6.3869   -5.6696   -4.4933 H         1 <0>         0.1306
     45 H17        -5.5712   -4.2699   -6.3477 H         1 <0>         0.1302
     46 H18        -3.1652   -3.7924   -6.5638 H         1 <0>         0.1300
     47 H19        -1.5759   -4.7082   -4.9211 H         1 <0>         0.1255
     48 H20        -0.2081   -5.7779   -4.6358 H         1 <0>         0.1208
     49 H21         1.2734   -7.3965   -5.7531 H         1 <0>         0.1283
     50 H22         1.1055   -9.7938   -5.2162 H         1 <0>         0.1290
     51 H23        -0.5434  -10.5723   -3.5614 H         1 <0>         0.1296
     52 H24        -2.0192   -8.9526   -2.4379 H         1 <0>         0.1249
     53 H25        -2.8515   -3.8536   -2.0370 H         1 <0>         0.4271
@<TRIPOS>BOND
     1    1    2 1
     2    1   29 1
     3    1   30 1
     4    1   31 1
     5    2    6 1
     6    2    3 1
     7    3    4 2
     8    3   32 1
     9    4    5 1
    10    4   13 1
    11    5    6 2
    12    5    7 1
    13    7   12 ar
    14    7    8 ar
    15    8    9 ar
    16    8   33 1
    17    9   10 ar
    18    9   34 1
    19   10   11 ar
    20   10   35 1
    21   11   12 ar
    22   12   36 1
    23   13   14 1
    24   13   37 1
    25   13   38 1
    26   14   15 1
    27   14   39 1
    28   14   53 1
    29   15   16 1
    30   15   40 1
    31   15   41 1
    32   16   17 1
    33   16   23 1
    34   16   42 1
    35   17   22 ar
    36   17   18 ar
    37   18   19 ar
    38   18   43 1
    39   19   20 ar
    40   19   44 1
    41   20   21 ar
    42   20   45 1
    43   21   22 ar
    44   21   46 1
    45   22   47 1
    46   23   28 ar
    47   23   24 ar
    48   24   25 ar
    49   24   48 1
    50   25   26 ar
    51   25   49 1
    52   26   27 ar
    53   26   50 1
    54   27   28 ar
    55   27   51 1
    56   28   52 1
@<TRIPOS>MOLECULE
ZINC01080884
   58    62     0     0     0
SMALL
USER_CHARGES
(4-tert-butylphenyl)BLAHdione
@<TRIPOS>ATOM
      1 C1         -1.2971    2.9776    1.5507 C.3       1 <0>        -0.1397
      2 C2         -0.7291    1.5851    1.2693 C.3       1 <0>        -0.0321
      3 C3         -1.8724    0.6271    0.9291 C.3       1 <0>        -0.1398
      4 C4          0.2423    1.6593    0.0896 C.3       1 <0>        -0.1467
      5 C5         -0.0001    1.0840    2.4894 C.ar      1 <0>        -0.0522
      6 C6          1.3438    0.7697    2.4112 C.ar      1 <0>        -0.1128
      7 C7          2.0134    0.3143    3.5315 C.ar      1 <0>        -0.1055
      8 C8          1.3371    0.1645    4.7277 C.ar      1 <0>        -0.1213
      9 C9         -0.0080    0.4738    4.8046 C.ar      1 <0>        -0.0942
     10 C10        -0.6767    0.9333    3.6855 C.ar      1 <0>        -0.1093
     11 C11         2.0663   -0.3356    5.9481 C.3       1 <0>         0.1182
     12 C12         1.9683    0.7494    7.1028 C.3       1 <0>         0.0487
     13 H1          2.4974    0.3914    7.9859 H         1 <0>         0.1085
     14 C13         2.7694    1.8220    6.4312 C.3       1 <0>        -0.0918
     15 C14         3.5196    2.7185    7.4248 C.3       1 <0>        -0.1070
     16 C15         3.5615    4.1015    6.7245 C.3       1 <0>        -0.1241
     17 C16         2.1805    4.1763    6.0255 C.3       1 <0>        -0.1228
     18 C17         1.9233    2.7330    5.5382 C.3       1 <0>        -0.1078
     19 C18         3.7681    1.0368    5.5819 C.2       1 <0>         0.5012
     20 O1          4.6629    1.5064    4.9196 O.2       1 <0>        -0.4065
     21 O2          3.4678   -0.3098    5.7135 O.3       1 <0>        -0.3105
     22 O3          0.5674    0.7160    7.3441 O.3       1 <0>        -0.3134
     23 C19         0.2643   -0.6216    7.4664 C.2       1 <0>         0.4953
     24 O4         -0.6301   -1.0908    8.1295 O.2       1 <0>        -0.4047
     25 C20         1.2604   -1.4070    6.6142 C.3       1 <0>        -0.0865
     26 C21         2.1059   -2.3213    7.5109 C.3       1 <0>        -0.1095
     27 C22         1.3923   -3.6954    7.4238 C.3       1 <0>        -0.1237
     28 C23         0.9325   -3.7521    5.9451 C.3       1 <0>        -0.1221
     29 C24         0.5117   -2.3011    5.6226 C.3       1 <0>        -0.1053
     30 H2         -0.4826    3.6601    1.7931 H         1 <0>         0.0573
     31 H3         -1.9891    2.9247    2.3911 H         1 <0>         0.0579
     32 H4         -1.8243    3.3400    0.6682 H         1 <0>         0.0610
     33 H5         -2.3997    0.9895    0.0466 H         1 <0>         0.0610
     34 H6         -1.4677   -0.3650    0.7287 H         1 <0>         0.0571
     35 H7         -2.5644    0.5742    1.7696 H         1 <0>         0.0578
     36 H8          1.0569    2.3419    0.3320 H         1 <0>         0.0594
     37 H9          0.6470    0.6673   -0.1108 H         1 <0>         0.0594
     38 H10        -0.2849    2.0217   -0.7929 H         1 <0>         0.0609
     39 H11         1.8713    0.8832    1.4756 H         1 <0>         0.1324
     40 H12         3.0644    0.0730    3.4714 H         1 <0>         0.1269
     41 H13        -0.5364    0.3567    5.7392 H         1 <0>         0.1267
     42 H14        -1.7276    1.1750    3.7456 H         1 <0>         0.1275
     43 H15         2.9755    2.7836    8.3671 H         1 <0>         0.0885
     44 H16         4.5295    2.3435    7.5908 H         1 <0>         0.0779
     45 H17         4.3675    4.1387    5.9916 H         1 <0>         0.0762
     46 H18         3.6684    4.9037    7.4546 H         1 <0>         0.0772
     47 H19         2.2177    4.8633    5.1801 H         1 <0>         0.0732
     48 H20         1.4107    4.4827    6.7336 H         1 <0>         0.0724
     49 H21         2.2312    2.6285    4.4979 H         1 <0>         0.0772
     50 H22         0.8672    2.4848    5.6436 H         1 <0>         0.0905
     51 H23         3.1244   -2.3947    7.1297 H         1 <0>         0.0946
     52 H24         2.1064   -1.9553    8.5376 H         1 <0>         0.0749
     53 H25         0.5349   -3.7283    8.0961 H         1 <0>         0.0764
     54 H26         2.0849   -4.5077    7.6440 H         1 <0>         0.0782
     55 H27         0.0848   -4.4285    5.8349 H         1 <0>         0.0753
     56 H28         1.7540   -4.0633    5.2998 H         1 <0>         0.0729
     57 H29        -0.5643   -2.1855    5.7528 H         1 <0>         0.0788
     58 H30         0.7953   -2.0471    4.6013 H         1 <0>         0.0877
@<TRIPOS>BOND
     1    1    2 1
     2    1   30 1
     3    1   31 1
     4    1   32 1
     5    2    3 1
     6    2    4 1
     7    2    5 1
     8    3   33 1
     9    3   34 1
    10    3   35 1
    11    4   36 1
    12    4   37 1
    13    4   38 1
    14    5   10 ar
    15    5    6 ar
    16    6    7 ar
    17    6   39 1
    18    7    8 ar
    19    7   40 1
    20    8    9 ar
    21    8   11 1
    22    9   10 ar
    23    9   41 1
    24   10   42 1
    25   11   21 1
    26   11   25 1
    27   11   12 1
    28   12   13 1
    29   12   14 1
    30   12   22 1
    31   14   18 1
    32   14   15 1
    33   14   19 1
    34   15   16 1
    35   15   43 1
    36   15   44 1
    37   16   17 1
    38   16   45 1
    39   16   46 1
    40   17   18 1
    41   17   47 1
    42   17   48 1
    43   18   49 1
    44   18   50 1
    45   19   20 2
    46   19   21 1
    47   22   23 1
    48   23   24 2
    49   23   25 1
    50   25   29 1
    51   25   26 1
    52   26   27 1
    53   26   51 1
    54   26   52 1
    55   27   28 1
    56   27   53 1
    57   27   54 1
    58   28   29 1
    59   28   55 1
    60   28   56 1
    61   29   57 1
    62   29   58 1
@<TRIPOS>MOLECULE
ZINC06863356
   35    37     0     0     0
SMALL
USER_CHARGES
4-[4-(4-bromophenoxy)-3,5,6-trifluoro-2-pyridyl]morpholine
@<TRIPOS>ATOM
      1 C1          1.1765    2.0913    0.0021 C.ar      1 <0>        -0.1857
      2 C2          2.3803    1.4140   -0.0122 C.ar      1 <0>        -0.0469
      3 C3          2.3967    0.0306   -0.0202 C.ar      1 <0>        -0.1163
      4 C4          1.2081   -0.6774   -0.0131 C.ar      1 <0>        -0.0496
      5 C5          0.0021   -0.0041    0.0020 C.ar      1 <0>        -0.1243
      6 C6         -0.0167    1.3833    0.0096 C.ar      1 <0>         0.1261
      7 O1         -1.2022    2.0477    0.0189 O.3       1 <0>        -0.2288
      8 C7         -1.1721    3.4058    0.0261 C.ar      1 <0>         0.1129
      9 C8         -1.1564    4.1117    1.2249 C.ar      1 <0>         0.0479
     10 C9         -1.1199    5.5001    1.1906 C.ar      1 <0>         0.3336
     11 N1         -1.1112    6.1482    0.0349 N.ar      1 <0>        -0.4931
     12 C10        -1.1310    5.5082   -1.1220 C.ar      1 <0>         0.3269
     13 C11        -1.1619    4.1262   -1.1677 C.ar      1 <0>         0.0209
     14 F1         -1.1824    3.4818   -2.3550 F         1 <0>        -0.0956
     15 F2         -1.1205    6.2134   -2.2743 F         1 <0>        -0.0806
     16 N2         -1.0982    6.2187    2.3839 N.pl3     1 <0>        -0.4622
     17 C12        -2.2449    5.8647    3.2330 C.3       1 <0>         0.0036
     18 C13        -2.1497    6.6307    4.5552 C.3       1 <0>         0.0659
     19 O2         -2.0892    8.0336    4.2843 O.3       1 <0>        -0.3794
     20 C14        -0.9839    8.4138    3.4602 C.3       1 <0>         0.0599
     21 C15        -1.0673    7.6658    2.1270 C.3       1 <0>         0.0243
     22 F3         -1.1710    3.4560    2.4061 F         1 <0>        -0.0945
     23 Br1         4.0462   -0.8939   -0.0403 Br        1 <0>        -0.0385
     24 H1          1.1641    3.1713    0.0080 H         1 <0>         0.1301
     25 H2          3.3093    1.9647   -0.0174 H         1 <0>         0.1420
     26 H3          1.2232   -1.7572   -0.0191 H         1 <0>         0.1482
     27 H4         -0.9255   -0.5571    0.0083 H         1 <0>         0.1486
     28 H5         -3.1710    6.1314    2.7238 H         1 <0>         0.0665
     29 H6         -2.2337    4.7930    3.4316 H         1 <0>         0.1093
     30 H7         -1.2504    6.3241    5.0895 H         1 <0>         0.0678
     31 H8         -3.0268    6.4153    5.1654 H         1 <0>         0.1116
     32 H9         -0.0507    8.1590    3.9627 H         1 <0>         0.0649
     33 H10        -1.0175    9.4878    3.2777 H         1 <0>         0.1104
     34 H11        -0.1965    7.9089    1.5182 H         1 <0>         0.1036
     35 H12        -1.9742    7.9612    1.5993 H         1 <0>         0.0705
@<TRIPOS>BOND
     1    1    6 ar
     2    1    2 ar
     3    1   24 1
     4    2    3 ar
     5    2   25 1
     6    3    4 ar
     7    3   23 1
     8    4    5 ar
     9    4   26 1
    10    5    6 ar
    11    5   27 1
    12    6    7 1
    13    7    8 1
    14    8   13 ar
    15    8    9 ar
    16    9   10 ar
    17    9   22 1
    18   10   11 ar
    19   10   16 1
    20   11   12 ar
    21   12   13 ar
    22   12   15 1
    23   13   14 1
    24   16   21 1
    25   16   17 1
    26   17   18 1
    27   17   28 1
    28   17   29 1
    29   18   19 1
    30   18   30 1
    31   18   31 1
    32   19   20 1
    33   20   21 1
    34   20   32 1
    35   20   33 1
    36   21   34 1
    37   21   35 1
@<TRIPOS>MOLECULE
ZINC13748596
   33    36     0     0     0
SMALL
USER_CHARGES
(6E)-6-[(2-bromophenyl)methylene]-3-phenyl-thiazolo[2,3-c][1,2,4]triazol-5-one
@<TRIPOS>ATOM
      1 C1         -3.5848   -2.3043   -0.9426 C.ar      1 <0>        -0.0896
      2 C2         -3.6415   -0.9608   -1.2688 C.ar      1 <0>        -0.1216
      3 C3         -2.5121   -0.1752   -1.1684 C.ar      1 <0>        -0.0723
      4 C4         -1.3098   -0.7387   -0.7364 C.ar      1 <0>        -0.0510
      5 C5         -1.2584   -2.0963   -0.4143 C.ar      1 <0>        -0.0634
      6 C6         -2.3968   -2.8690   -0.5133 C.ar      1 <0>        -0.1240
      7 C7         -0.0962    0.0966   -0.6264 C.2       1 <0>         0.3002
      8 N1          1.1376   -0.3042   -0.8053 N.2       1 <0>        -0.2509
      9 N2          1.9506    0.6774   -0.6342 N.2       1 <0>        -0.2121
     10 C8          1.2836    1.7544   -0.3378 C.2       1 <0>         0.1662
     11 N3         -0.0564    1.4588   -0.3130 N.am      1 <0>        -0.5135
     12 C9         -0.9279    2.4315   -0.0217 C.2       1 <0>         0.5542
     13 O1         -2.1242    2.2141    0.0171 O.2       1 <0>        -0.4224
     14 C10        -0.3885    3.7744    0.2475 C.2       1 <0>        -0.2271
     15 C11        -1.0449    4.9214    0.5595 C.2       1 <0>         0.0861
     16 C12        -2.4900    4.8926    0.8221 C.ar      1 <0>        -0.0746
     17 C13        -3.0476    3.8543    1.5775 C.ar      1 <0>        -0.0431
     18 C14        -4.4037    3.8370    1.8230 C.ar      1 <0>        -0.1092
     19 C15        -5.2162    4.8373    1.3165 C.ar      1 <0>        -0.0848
     20 C16        -4.6749    5.8651    0.5647 C.ar      1 <0>        -0.0991
     21 C17        -3.3184    5.9006    0.3133 C.ar      1 <0>        -0.0595
     22 Br1        -2.5808    7.3054   -0.7153 Br        1 <0>        -0.0349
     23 S1          1.3647    3.4846    0.0581 S.3       1 <0>         0.1695
     24 H1         -4.4720   -2.9149   -1.0230 H         1 <0>         0.1309
     25 H2         -4.5722   -0.5262   -1.6025 H         1 <0>         0.1310
     26 H3         -2.5578    0.8733   -1.4231 H         1 <0>         0.1321
     27 H4         -0.3305   -2.5395   -0.0841 H         1 <0>         0.1366
     28 H5         -2.3596   -3.9181   -0.2596 H         1 <0>         0.1350
     29 H6         -0.5045    5.8549    0.6145 H         1 <0>         0.1694
     30 H7         -2.4163    3.0706    1.9697 H         1 <0>         0.1289
     31 H8         -4.8346    3.0383    2.4085 H         1 <0>         0.1350
     32 H9         -6.2786    4.8150    1.5090 H         1 <0>         0.1376
     33 H10        -5.3156    6.6414    0.1733 H         1 <0>         0.1403
@<TRIPOS>BOND
     1    1    6 ar
     2    1    2 ar
     3    1   24 1
     4    2    3 ar
     5    2   25 1
     6    3    4 ar
     7    3   26 1
     8    4    5 ar
     9    4    7 1
    10    5    6 ar
    11    5   27 1
    12    6   28 1
    13    7   11 1
    14    7    8 2
    15    8    9 1
    16    9   10 2
    17   10   23 1
    18   10   11 1
    19   11   12 am
    20   12   13 2
    21   12   14 1
    22   14   15 2
    23   14   23 1
    24   15   16 1
    25   15   29 1
    26   16   21 ar
    27   16   17 ar
    28   17   18 ar
    29   17   30 1
    30   18   19 ar
    31   18   31 1
    32   19   20 ar
    33   19   32 1
    34   20   21 ar
    35   20   33 1
    36   21   22 1
@<TRIPOS>MOLECULE
ZINC39371165
   39    43     0     0     0
SMALL
USER_CHARGES

@<TRIPOS>ATOM
      1 C1          0.8104    1.3354    1.8672 C.ar      1 <0>        -0.1232
      2 C2          1.1706    2.0277    0.7240 C.ar      1 <0>        -0.0811
      3 C3          1.7493    1.3630   -0.3420 C.ar      1 <0>        -0.1206
      4 C4          1.9718    0.0018   -0.2722 C.ar      1 <0>         0.0036
      5 C5          1.6103   -0.7033    0.8795 C.ar      1 <0>        -0.0662
      6 C6          1.0263   -0.0240    1.9515 C.ar      1 <0>        -0.0676
      7 C7          1.8443   -2.1566    0.9623 C.2       1 <0>         0.1770
      8 N1          2.3871   -2.7845   -0.0355 N.2       1 <0>        -0.2272
      9 N2          2.5108   -4.1796   -0.0015 N.am      1 <0>        -0.4372
     10 C8          1.3849   -4.9218   -0.0314 C.2       1 <0>         0.5656
     11 O1          0.2988   -4.3768   -0.0861 O.2       1 <0>        -0.4890
     12 C9          1.4697   -6.3872    0.0016 C.ar      1 <0>        -0.1654
     13 C10         0.3755   -7.2386   -0.0245 C.ar      1 <0>         0.0073
     14 C11         0.5349   -8.6256    0.0101 C.ar      1 <0>        -0.1303
     15 C12         1.7743   -9.1965    0.0711 C.ar      1 <0>        -0.0175
     16 C13         2.8810   -8.3523    0.0981 C.ar      1 <0>        -0.1084
     17 C14         2.7579   -6.9652    0.0648 C.ar      1 <0>         0.0137
     18 C15         3.9241   -6.1672    0.0960 C.ar      1 <0>        -0.1634
     19 C16         5.1508   -6.8107    0.1593 C.ar      1 <0>         0.0070
     20 C17         5.2380   -8.2041    0.1912 C.ar      1 <0>        -0.1291
     21 C18         4.1187   -8.9864    0.1609 C.ar      1 <0>        -0.0188
     22 C19         3.8441  -10.4702    0.1803 C.3       1 <0>        -0.0852
     23 C20         2.3058  -10.6080    0.1213 C.3       1 <0>        -0.0853
     24 C21         3.7499   -4.7100    0.0538 C.2       1 <0>         0.5797
     25 O2          4.7231   -3.9806    0.0731 O.2       1 <0>        -0.4733
     26 Cl1         2.6977   -0.8313   -1.6111 Cl        1 <0>        -0.0209
     27 H1          0.3631    1.8621    2.6972 H         1 <0>         0.1374
     28 H2          0.9985    3.0922    0.6639 H         1 <0>         0.1376
     29 H3          2.0274    1.9095   -1.2309 H         1 <0>         0.1399
     30 H4          0.7448   -0.5623    2.8445 H         1 <0>         0.1394
     31 H5          1.5641   -2.6988    1.8534 H         1 <0>         0.1262
     32 H6         -0.6194   -6.8210   -0.0721 H         1 <0>         0.1469
     33 H7         -0.3393   -9.2594   -0.0113 H         1 <0>         0.1410
     34 H8          6.0565   -6.2228    0.1840 H         1 <0>         0.1477
     35 H9          6.2099   -8.6725    0.2402 H         1 <0>         0.1413
     36 H10         4.2989  -10.9490   -0.6869 H         1 <0>         0.0996
     37 H11         4.2271  -10.9124    1.0999 H         1 <0>         0.0995
     38 H12         1.9386  -11.1175    1.0122 H         1 <0>         0.0995
     39 H13         2.0104  -11.1540   -0.7747 H         1 <0>         0.0996
@<TRIPOS>BOND
     1    1    6 ar
     2    1    2 ar
     3    1   27 1
     4    2    3 ar
     5    2   28 1
     6    3    4 ar
     7    3   29 1
     8    4    5 ar
     9    4   26 1
    10    5    6 ar
    11    5    7 1
    12    6   30 1
    13    7    8 2
    14    7   31 1
    15    8    9 1
    16    9   24 am
    17    9   10 am
    18   10   11 2
    19   10   12 1
    20   12   17 ar
    21   12   13 ar
    22   13   14 ar
    23   13   32 1
    24   14   15 ar
    25   14   33 1
    26   15   23 1
    27   15   16 ar
    28   16   21 ar
    29   16   17 ar
    30   17   18 ar
    31   18   19 ar
    32   18   24 1
    33   19   20 ar
    34   19   34 1
    35   20   21 ar
    36   20   35 1
    37   21   22 1
    38   22   23 1
    39   22   36 1
    40   22   37 1
    41   23   38 1
    42   23   39 1
    43   24   25 2
@<TRIPOS>MOLECULE
ZINC08323659
   45    49     0     0     0
SMALL
USER_CHARGES

@<TRIPOS>ATOM
      1 C1         -0.0167    1.3793    0.0096 C.ar      1 <0>        -0.1084
      2 C2          1.1685    2.0929    0.0021 C.ar      1 <0>        -0.1171
      3 C3          2.3774    1.4279   -0.0130 C.ar      1 <0>        -0.0964
      4 C4          2.4029    0.0333   -0.0207 C.ar      1 <0>        -0.0605
      5 C5          1.2046   -0.6805   -0.0131 C.ar      1 <0>        -0.1023
      6 C6          0.0021   -0.0041    0.0020 C.ar      1 <0>        -0.1176
      7 C7          3.6971   -0.6866   -0.0375 C.ar      1 <0>         0.0250
      8 C8          4.6885   -0.3584   -0.9529 C.ar      1 <0>        -0.1649
      9 C9          5.8914   -1.0538   -0.9415 C.ar      1 <0>         0.1455
     10 N1          6.1240   -2.0207   -0.0859 N.ar      1 <0>        -0.4771
     11 C10         5.2169   -2.3899    0.8223 C.ar      1 <0>         0.1479
     12 C11         3.9667   -1.7296    0.8844 C.ar      1 <0>        -0.0869
     13 C12         3.0207   -2.1165    1.8430 C.ar      1 <0>        -0.0798
     14 C13         3.3094   -3.1226    2.7155 C.ar      1 <0>        -0.1114
     15 C14         4.5366   -3.7775    2.6709 C.ar      1 <0>        -0.0704
     16 C15         5.4861   -3.4335    1.7346 C.ar      1 <0>         0.1246
     17 N2          6.7162   -4.1007    1.6998 N.am      1 <0>        -0.5290
     18 C16         7.7868   -3.7063    2.4159 C.2       1 <0>         0.5323
     19 O1          7.7921   -2.8876    3.3099 O.2       1 <0>        -0.4600
     20 C17         9.0008   -4.4891    1.8883 C.3       1 <0>        -0.1012
     21 H1          9.7472   -4.7077    2.6521 H         1 <0>         0.1418
     22 C18         9.5463   -3.6374    0.7393 C.3       1 <0>        -0.0822
     23 C19        10.1081   -4.4448   -0.3792 C.2       1 <0>        -0.1340
     24 C20         9.8718   -5.7010   -0.5753 C.2       1 <0>        -0.0654
     25 C21         9.0273   -6.5300    0.3400 C.3       1 <0>        -0.0647
     26 C22         8.2736   -5.7403    1.3698 C.3       1 <0>        -0.1184
     27 H2          8.0885   -6.3813    2.2318 H         1 <0>         0.1271
     28 C23         6.9365   -5.2031    0.9489 C.2       1 <0>         0.5438
     29 O2          6.2021   -5.6647    0.1021 O.2       1 <0>        -0.4521
     30 Cl1        10.5688   -6.4633   -1.9706 Cl        1 <0>        -0.0792
     31 H3         -0.9604    1.9042    0.0260 H         1 <0>         0.1266
     32 H4          1.1475    3.1726    0.0078 H         1 <0>         0.1283
     33 H5          3.3020    1.9861   -0.0192 H         1 <0>         0.1267
     34 H6          1.2180   -1.7604   -0.0194 H         1 <0>         0.1270
     35 H7         -0.9264   -0.5556    0.0083 H         1 <0>         0.1285
     36 H8          4.5253    0.4327   -1.6699 H         1 <0>         0.1436
     37 H9          6.6562   -0.7912   -1.6574 H         1 <0>         0.1648
     38 H10         2.0640   -1.6176    1.8905 H         1 <0>         0.1408
     39 H11         2.5759   -3.4157    3.4521 H         1 <0>         0.1405
     40 H12         4.7430   -4.5721    3.3727 H         1 <0>         0.1364
     41 H13         8.7392   -3.0162    0.3509 H         1 <0>         0.0971
     42 H14        10.3292   -2.9861    1.1279 H         1 <0>         0.0990
     43 H15        10.7616   -3.9440   -1.0782 H         1 <0>         0.1269
     44 H16         8.3154   -7.0964   -0.2605 H         1 <0>         0.1023
     45 H17         9.6719   -7.2338    0.8666 H         1 <0>         0.1023
@<TRIPOS>BOND
     1    1    6 ar
     2    1    2 ar
     3    1   31 1
     4    2    3 ar
     5    2   32 1
     6    3    4 ar
     7    3   33 1
     8    4    5 ar
     9    4    7 1
    10    5    6 ar
    11    5   34 1
    12    6   35 1
    13    7   12 ar
    14    7    8 ar
    15    8    9 ar
    16    8   36 1
    17    9   10 ar
    18    9   37 1
    19   10   11 ar
    20   11   16 ar
    21   11   12 ar
    22   12   13 ar
    23   13   14 ar
    24   13   38 1
    25   14   15 ar
    26   14   39 1
    27   15   16 ar
    28   15   40 1
    29   16   17 1
    30   17   28 am
    31   17   18 am
    32   18   19 2
    33   18   20 1
    34   20   21 1
    35   20   26 1
    36   20   22 1
    37   22   23 1
    38   22   41 1
    39   22   42 1
    40   23   24 2
    41   23   43 1
    42   24   25 1
    43   24   30 1
    44   25   26 1
    45   25   44 1
    46   25   45 1
    47   26   27 1
    48   26   28 1
    49   28   29 2
@<TRIPOS>MOLECULE
ZINC07262079
   55    56     0     0     0
SMALL
USER_CHARGES
3-[(4-butylphenyl)carbamoyl]-1,2,2,3-tetramethyl-cyclopentane-1-carboxylic acid
@<TRIPOS>ATOM
      1 C1         10.5833    5.9567   -8.0029 C.3       1 <0>        -0.1535
      2 C2         10.4313    4.6509   -7.2201 C.3       1 <0>        -0.1251
      3 C3          9.3381    4.8148   -6.1623 C.3       1 <0>        -0.1150
      4 C4          9.1860    3.5090   -5.3795 C.3       1 <0>        -0.0762
      5 C5          8.1092    3.6704   -4.3375 C.ar      1 <0>        -0.1051
      6 C6          6.7966    3.3670   -4.6492 C.ar      1 <0>        -0.0983
      7 C7          5.8075    3.5139   -3.6965 C.ar      1 <0>        -0.1168
      8 C8          6.1323    3.9668   -2.4246 C.ar      1 <0>         0.1500
      9 C9          7.4506    4.2761   -2.1165 C.ar      1 <0>        -0.1479
     10 C10         8.4359    4.1221   -3.0720 C.ar      1 <0>        -0.1010
     11 N1          5.1325    4.1166   -1.4571 N.am      1 <0>        -0.6764
     12 C11         3.8998    4.5236   -1.8194 C.2       1 <0>         0.5410
     13 O1          3.6312    4.6740   -2.9926 O.2       1 <0>        -0.5179
     14 C12         2.8552    4.7919   -0.7668 C.3       1 <0>        -0.0784
     15 C13         1.6077    5.4309   -1.4112 C.3       1 <0>        -0.1047
     16 C14         0.6558    4.2353   -1.6634 C.3       1 <0>        -0.0995
     17 C15         0.8808    3.3495   -0.4129 C.3       1 <0>        -0.0982
     18 C16         2.3924    3.4679   -0.1286 C.3       1 <0>        -0.0223
     19 C17         2.6413    3.4948    1.3808 C.3       1 <0>        -0.1388
     20 C18         3.1386    2.2923   -0.7626 C.3       1 <0>        -0.1547
     21 C19         0.0701    3.8794    0.7715 C.3       1 <0>        -0.1173
     22 C20         0.5098    1.9187   -0.7064 C.2       1 <0>         0.4804
     23 O2          0.1630    1.6006   -1.8192 O.co2     1 <0>        -0.6388
     24 C21         3.4225    5.7194    0.3096 C.3       1 <0>        -0.1380
     25 H1          9.6394    6.1999   -8.4906 H         1 <0>         0.0538
     26 H2         10.8568    6.7604   -7.3193 H         1 <0>         0.0529
     27 H3         11.3621    5.8399   -8.7565 H         1 <0>         0.0519
     28 H4         11.3752    4.4076   -6.7324 H         1 <0>         0.0601
     29 H5         10.1578    3.8472   -7.9037 H         1 <0>         0.0610
     30 H6          8.3941    5.0581   -6.6500 H         1 <0>         0.0635
     31 H7          9.6115    5.6185   -5.4786 H         1 <0>         0.0620
     32 H8         10.1300    3.2658   -4.8918 H         1 <0>         0.0684
     33 H9          8.9125    2.7053   -6.0631 H         1 <0>         0.0695
     34 H10         6.5446    3.0152   -5.6387 H         1 <0>         0.1217
     35 H11         4.7824    3.2771   -3.9406 H         1 <0>         0.1409
     36 H12         7.7057    4.6328   -1.1296 H         1 <0>         0.1220
     37 H13         9.4619    4.3586   -2.8319 H         1 <0>         0.1207
     38 H14         5.3267    3.9276   -0.5257 H         1 <0>         0.4096
     39 H15         1.8698    5.9149   -2.3520 H         1 <0>         0.0740
     40 H16         1.1484    6.1470   -0.7298 H         1 <0>         0.0671
     41 H17         0.9382    3.7015   -2.5708 H         1 <0>         0.0770
     42 H18        -0.3798    4.5709   -1.7179 H         1 <0>         0.0582
     43 H19         2.2870    2.5642    1.8241 H         1 <0>         0.0717
     44 H20         3.7090    3.6046    1.5710 H         1 <0>         0.0422
     45 H21         2.1053    4.3349    1.8225 H         1 <0>         0.0594
     46 H22         2.9759    2.2973   -1.8404 H         1 <0>         0.0523
     47 H23         4.2048    2.3846   -0.5557 H         1 <0>         0.0424
     48 H24         2.7667    1.3574   -0.3434 H         1 <0>         0.0859
     49 H25         0.2846    3.2796    1.6560 H         1 <0>         0.0637
     50 H26         0.3415    4.9178    0.9621 H         1 <0>         0.0408
     51 H27        -0.9933    3.8184    0.5403 H         1 <0>         0.0428
     52 H28         2.6599    5.9083    1.0652 H         1 <0>         0.0744
     53 H29         4.2875    5.2482    0.7763 H         1 <0>         0.0578
     54 H30         3.7242    6.6627   -0.1458 H         1 <0>         0.0529
     55 O3          0.5647    0.9976    0.2685 O.co2     1 <0>        -0.7680
@<TRIPOS>BOND
     1    1    2 1
     2    1   25 1
     3    1   26 1
     4    1   27 1
     5    2    3 1
     6    2   28 1
     7    2   29 1
     8    3    4 1
     9    3   30 1
    10    3   31 1
    11    4    5 1
    12    4   32 1
    13    4   33 1
    14    5   10 ar
    15    5    6 ar
    16    6    7 ar
    17    6   34 1
    18    7    8 ar
    19    7   35 1
    20    8    9 ar
    21    8   11 1
    22    9   10 ar
    23    9   36 1
    24   10   37 1
    25   11   12 am
    26   11   38 1
    27   12   13 2
    28   12   14 1
    29   14   18 1
    30   14   15 1
    31   14   24 1
    32   15   16 1
    33   15   39 1
    34   15   40 1
    35   16   17 1
    36   16   41 1
    37   16   42 1
    38   17   18 1
    39   17   21 1
    40   17   22 1
    41   18   19 1
    42   18   20 1
    43   19   43 1
    44   19   44 1
    45   19   45 1
    46   20   46 1
    47   20   47 1
    48   20   48 1
    49   21   49 1
    50   21   50 1
    51   21   51 1
    52   22   23 2
    53   22   55 1
    54   24   52 1
    55   24   53 1
    56   24   54 1
@<TRIPOS>MOLECULE
ZINC13402627
   42    43     0     0     0
SMALL
USER_CHARGES
(E)-3-[4-[[2-(p-tolylmethylsulfanyl)acetyl]amino]phenyl]prop-2-enoic acid
@<TRIPOS>ATOM
      1 C1          2.1134    8.0011   -1.1324 C.3       1 <0>        -0.1167
      2 C2          2.0035    6.5107   -0.9382 C.ar      1 <0>        -0.0807
      3 C3          1.8960    5.9858    0.3360 C.ar      1 <0>        -0.1210
      4 C4          1.7953    4.6187    0.5141 C.ar      1 <0>        -0.0955
      5 C5          1.8011    3.7766   -0.5821 C.ar      1 <0>        -0.0791
      6 C6          1.9134    4.3012   -1.8561 C.ar      1 <0>        -0.0958
      7 C7          2.0098    5.6686   -2.0344 C.ar      1 <0>        -0.1213
      8 C8          1.6912    2.2862   -0.3880 C.3       1 <0>        -0.0657
      9 S1         -0.0567    1.8013   -0.4060 S.3       1 <0>        -0.1647
     10 C9         -0.0161    0.0040   -0.1637 C.3       1 <0>        -0.1339
     11 C10        -1.4237   -0.5341   -0.1585 C.2       1 <0>         0.5259
     12 O1         -2.3620    0.2205   -0.3039 O.2       1 <0>        -0.4926
     13 N1         -1.6400   -1.8540    0.0078 N.am      1 <0>        -0.6659
     14 C11        -2.9429   -2.3381    0.1229 C.ar      1 <0>         0.1243
     15 C12        -3.9169   -1.5663    0.7494 C.ar      1 <0>        -0.1137
     16 C13        -5.2049   -2.0378    0.8610 C.ar      1 <0>        -0.0989
     17 C14        -5.5324   -3.3004    0.3521 C.ar      1 <0>        -0.0454
     18 C15        -4.5479   -4.0755   -0.2728 C.ar      1 <0>        -0.0965
     19 C16        -3.2637   -3.5938   -0.3841 C.ar      1 <0>        -0.1407
     20 C17        -6.9050   -3.8106    0.4738 C.2       1 <0>        -0.1150
     21 C18        -7.8533   -3.0610    1.0771 C.2       1 <0>        -0.1412
     22 C19        -9.1777   -3.5533    1.1946 C.2       1 <0>         0.4691
     23 O2         -9.4601   -4.6507    0.7521 O.co2     1 <0>        -0.6378
     24 H1          3.1636    8.2926   -1.1208 H         1 <0>         0.0706
     25 H2          1.6704    8.2765   -2.0895 H         1 <0>         0.0671
     26 H3          1.5855    8.5123   -0.3273 H         1 <0>         0.0673
     27 H4          1.8912    6.6437    1.1925 H         1 <0>         0.1240
     28 H5          1.7117    4.2085    1.5097 H         1 <0>         0.1249
     29 H6          1.9224    3.6430   -2.7123 H         1 <0>         0.1245
     30 H7          2.0934    6.0788   -3.0300 H         1 <0>         0.1238
     31 H8          2.1348    2.0107    0.5688 H         1 <0>         0.0900
     32 H9          2.2184    1.7750   -1.1935 H         1 <0>         0.0897
     33 H10         0.5470   -0.4592   -0.9740 H         1 <0>         0.1117
     34 H11         0.4634   -0.2235    0.7883 H         1 <0>         0.1130
     35 H12        -0.8895   -2.4672    0.0474 H         1 <0>         0.4088
     36 H13        -3.6625   -0.5941    1.1450 H         1 <0>         0.1318
     37 H14        -5.9610   -1.4366    1.3441 H         1 <0>         0.1324
     38 H15        -4.7960   -5.0502   -0.6664 H         1 <0>         0.1294
     39 H16        -2.5037   -4.1910   -0.8659 H         1 <0>         0.1227
     40 H17        -7.1557   -4.7849    0.0810 H         1 <0>         0.1290
     41 H18        -7.6026   -2.0867    1.4699 H         1 <0>         0.1069
     42 O3        -10.1248   -2.8046    1.7971 O.co2     1 <0>        -0.7647
@<TRIPOS>BOND
     1    1    2 1
     2    1   24 1
     3    1   25 1
     4    1   26 1
     5    2    7 ar
     6    2    3 ar
     7    3    4 ar
     8    3   27 1
     9    4    5 ar
    10    4   28 1
    11    5    6 ar
    12    5    8 1
    13    6    7 ar
    14    6   29 1
    15    7   30 1
    16    8    9 1
    17    8   31 1
    18    8   32 1
    19    9   10 1
    20   10   11 1
    21   10   33 1
    22   10   34 1
    23   11   12 2
    24   11   13 am
    25   13   14 1
    26   13   35 1
    27   14   19 ar
    28   14   15 ar
    29   15   16 ar
    30   15   36 1
    31   16   17 ar
    32   16   37 1
    33   17   18 ar
    34   17   20 1
    35   18   19 ar
    36   18   38 1
    37   19   39 1
    38   20   21 2
    39   20   40 1
    40   21   22 1
    41   21   41 1
    42   22   23 2
    43   22   42 1
@<TRIPOS>MOLECULE
ZINC35425476
   32    33     0     0     0
SMALL
USER_CHARGES

@<TRIPOS>ATOM
      1 C1         -0.0184    1.5028    0.0103 C.3       1 <0>        -0.1206
      2 C2          0.0021   -0.0041    0.0020 C.ar      1 <0>        -0.0580
      3 C3          0.0057   -0.6888   -1.1973 C.ar      1 <0>        -0.0725
      4 C4          0.0244   -2.0721   -1.2058 C.ar      1 <0>        -0.0957
      5 C5          0.0391   -2.7743   -0.0132 C.ar      1 <0>        -0.0756
      6 C6          0.0355   -2.0957    1.1891 C.ar      1 <0>        -0.1291
      7 C7          0.0230   -0.7059    1.2010 C.ar      1 <0>        -0.0908
      8 S1          0.0258    0.1640    2.7333 S.3       1 <0>         0.0028
      9 C8          0.0555   -1.1498    3.9837 C.3       1 <0>        -0.1568
     10 C9          0.0602   -0.5342    5.3592 C.2       1 <0>         0.5164
     11 O1          0.0450    0.6721    5.4837 O.2       1 <0>        -0.4819
     12 N1          0.0813   -1.3241    6.4510 N.am      1 <0>        -0.6075
     13 C10         0.0856   -0.7571    7.7178 C.2       1 <0>        -0.0599
     14 C11         0.1116   -1.4024    8.9348 C.2       1 <0>        -0.2066
     15 C12         0.1118   -0.6496   10.0770 C.2       1 <0>        -0.1251
     16 C13         0.0852    0.7302    9.8962 C.2       1 <0>        -0.2223
     17 S2          0.0679    0.8741    8.1196 S.3       1 <0>         0.2939
     18 C14         0.0780    1.7528   10.8695 C.2       1 <0>         0.5500
     19 O2          0.0967    1.4650   12.0609 O.co2     1 <0>        -0.6777
     20 O3          0.0532    2.9284   10.5231 O.co2     1 <0>        -0.6845
     21 Br1         0.0294   -3.0056   -2.8503 Br        1 <0>        -0.0517
     22 H1          1.0042    1.8801    0.0026 H         1 <0>         0.0811
     23 H2         -0.5455    1.8639   -0.8728 H         1 <0>         0.0749
     24 H3         -0.5286    1.8543    0.9071 H         1 <0>         0.0782
     25 H4         -0.0064   -0.1437   -2.1297 H         1 <0>         0.1376
     26 H5          0.0530   -3.8541   -0.0231 H         1 <0>         0.1348
     27 H6          0.0470   -2.6441    2.1194 H         1 <0>         0.1308
     28 H7         -0.8272   -1.7793    3.8704 H         1 <0>         0.1219
     29 H8          0.9525   -1.7551    3.8535 H         1 <0>         0.1221
     30 H9          0.0934   -2.2889    6.3514 H         1 <0>         0.4130
     31 H10         0.1310   -2.4810    8.9860 H         1 <0>         0.1200
     32 H11         0.1311   -1.0985   11.0591 H         1 <0>         0.1386
@<TRIPOS>BOND
     1    1    2 1
     2    1   22 1
     3    1   23 1
     4    1   24 1
     5    2    7 ar
     6    2    3 ar
     7    3    4 ar
     8    3   25 1
     9    4    5 ar
    10    4   21 1
    11    5    6 ar
    12    5   26 1
    13    6    7 ar
    14    6   27 1
    15    7    8 1
    16    8    9 1
    17    9   10 1
    18    9   28 1
    19    9   29 1
    20   10   11 2
    21   10   12 am
    22   12   13 1
    23   12   30 1
    24   13   17 1
    25   13   14 2
    26   14   15 1
    27   14   31 1
    28   15   16 2
    29   15   32 1
    30   16   17 1
    31   16   18 1
    32   18   19 2
    33   18   20 1
@<TRIPOS>MOLECULE
ZINC37960687
   36    37     0     0     0
SMALL
USER_CHARGES

@<TRIPOS>ATOM
      1 C1         -0.3830    1.5257   -0.1601 C.3       1 <0>        -0.1271
      2 C2          0.0116    0.0502   -0.2505 C.3       1 <0>         0.1359
      3 C3          0.9758   -0.2809    0.8593 C.ar      1 <0>        -0.0681
      4 C4          0.5690   -1.0829    1.9101 C.ar      1 <0>        -0.0921
      5 C5          1.4496   -1.3880    2.9290 C.ar      1 <0>        -0.1062
      6 C6          2.7461   -0.8885    2.8975 C.ar      1 <0>        -0.0935
      7 C7          3.1514   -0.0834    1.8397 C.ar      1 <0>        -0.1377
      8 C8          2.2669    0.2133    0.8217 C.ar      1 <0>        -0.0802
      9 S1          3.8731   -1.2747    4.1957 S.3       1 <0>        -0.1420
     10 C9          5.3993   -0.4165    3.7217 C.3       1 <0>        -0.1390
     11 C10         0.6676   -0.2137   -1.5813 C.2       1 <0>         0.4969
     12 O1          1.6858    0.3828   -1.8880 O.co2     1 <0>        -0.6852
     13 O2          0.1802   -1.0237   -2.3513 O.co2     1 <0>        -0.6632
     14 N1         -1.1858   -0.7842   -0.1223 N.pl3     1 <0>        -0.7165
     15 C11        -1.0821   -2.1738   -0.2175 C.ar      1 <0>         0.2602
     16 C12         0.1684   -2.7754   -0.2878 C.ar      1 <0>        -0.1299
     17 C13         0.2679   -4.1495   -0.3818 C.ar      1 <0>        -0.0799
     18 C14        -0.8753   -4.9272   -0.4065 C.ar      1 <0>        -0.1615
     19 C15        -2.1222   -4.3319   -0.3367 C.ar      1 <0>        -0.0455
     20 C16        -2.2284   -2.9574   -0.2362 C.ar      1 <0>        -0.1851
     21 Br1        -3.6823   -5.3999   -0.3708 Br        1 <0>        -0.0793
     22 H1          0.5114    2.1455   -0.2240 H         1 <0>         0.0759
     23 H2         -1.0558    1.7729   -0.9812 H         1 <0>         0.0579
     24 H3         -0.8855    1.7099    0.7894 H         1 <0>         0.0496
     25 H4         -0.4387   -1.4706    1.9340 H         1 <0>         0.1255
     26 H5          1.1310   -2.0137    3.7496 H         1 <0>         0.1195
     27 H6          4.1582    0.3065    1.8119 H         1 <0>         0.1174
     28 H7          2.5824    0.8356   -0.0027 H         1 <0>         0.1507
     29 H8          6.1668   -0.5980    4.4741 H         1 <0>         0.1034
     30 H9          5.7413   -0.7898    2.7564 H         1 <0>         0.0828
     31 H10         5.2069    0.6540    3.6498 H         1 <0>         0.0816
     32 H11        -2.0506   -0.3716    0.0286 H         1 <0>         0.3913
     33 H12         1.0617   -2.1688   -0.2693 H         1 <0>         0.1261
     34 H13         1.2398   -4.6173   -0.4365 H         1 <0>         0.1192
     35 H14        -0.7945   -6.0017   -0.4808 H         1 <0>         0.1179
     36 H15        -3.2017   -2.4932   -0.1769 H         1 <0>         0.1200
@<TRIPOS>BOND
     1    1    2 1
     2    1   22 1
     3    1   23 1
     4    1   24 1
     5    2    3 1
     6    2   11 1
     7    2   14 1
     8    3    8 ar
     9    3    4 ar
    10    4    5 ar
    11    4   25 1
    12    5    6 ar
    13    5   26 1
    14    6    7 ar
    15    6    9 1
    16    7    8 ar
    17    7   27 1
    18    8   28 1
    19    9   10 1
    20   10   29 1
    21   10   30 1
    22   10   31 1
    23   11   12 2
    24   11   13 1
    25   14   15 1
    26   14   32 1
    27   15   20 ar
    28   15   16 ar
    29   16   17 ar
    30   16   33 1
    31   17   18 ar
    32   17   34 1
    33   18   19 ar
    34   18   35 1
    35   19   20 ar
    36   19   21 1
    37   20   36 1
@<TRIPOS>MOLECULE
ZINC50208701
   33    34     0     0     0
SMALL
USER_CHARGES

@<TRIPOS>ATOM
      1 C1         -0.0981    1.3970   -0.0496 C.3       1 <0>         0.0778
      2 N1         -0.0570   -0.0674   -0.0457 N.am      1 <0>        -0.5892
      3 C2         -0.0458   -0.7639    1.1679 C.ar      1 <0>         0.1660
      4 C3          1.0332   -0.6373    2.0329 C.ar      1 <0>        -0.1226
      5 C4          1.0410   -1.3257    3.2303 C.ar      1 <0>        -0.1115
      6 C5         -0.0239   -2.1406    3.5679 C.ar      1 <0>        -0.1263
      7 C6         -1.0996   -2.2692    2.7085 C.ar      1 <0>        -0.1114
      8 C7         -1.1163   -1.5787    1.5125 C.ar      1 <0>        -0.1031
      9 C8         -0.0299   -0.7439   -1.2111 C.2       1 <0>         0.7041
     10 O1         -0.0895   -1.9582   -1.2107 O.2       1 <0>        -0.5722
     11 N2          0.0631   -0.0742   -2.3770 N.am      1 <0>        -0.6512
     12 C9         -0.0290   -0.7615   -3.5836 C.ar      1 <0>         0.2156
     13 C10        -0.7111   -1.9694   -3.6483 C.ar      1 <0>        -0.1499
     14 C11        -0.8010   -2.6499   -4.8453 C.ar      1 <0>        -0.0727
     15 C12        -0.2131   -2.1359   -5.9917 C.ar      1 <0>        -0.1284
     16 C13         0.4679   -0.9389   -5.9478 C.ar      1 <0>        -0.0305
     17 C14         0.5624   -0.2343   -4.7431 C.ar      1 <0>        -0.1704
     18 C15         1.2828    1.0475   -4.6895 C.2       1 <0>         0.5308
     19 O2          1.7127    1.5510   -5.7184 O.co2     1 <0>        -0.6723
     20 O3          1.4519    1.6098   -3.6162 O.co2     1 <0>        -0.6867
     21 Br1        -0.3465   -3.0831   -7.6229 Br        1 <0>        -0.0761
     22 H1          0.9190    1.7890   -0.0434 H         1 <0>         0.0662
     23 H2         -0.6157    1.7436   -0.9440 H         1 <0>         0.0777
     24 H3         -0.6281    1.7479    0.8359 H         1 <0>         0.0757
     25 H4          1.8655   -0.0015    1.7695 H         1 <0>         0.1251
     26 H5          1.8798   -1.2276    3.9034 H         1 <0>         0.1243
     27 H6         -0.0153   -2.6781    4.5046 H         1 <0>         0.1216
     28 H7         -1.9295   -2.9070    2.9747 H         1 <0>         0.1238
     29 H8         -1.9587   -1.6760    0.8437 H         1 <0>         0.1231
     30 H9          0.1943    0.8869   -2.3751 H         1 <0>         0.4277
     31 H10        -1.1715   -2.3770   -2.7604 H         1 <0>         0.1491
     32 H11        -1.3324   -3.5891   -4.8898 H         1 <0>         0.1263
     33 H12         0.9243   -0.5432   -6.8431 H         1 <0>         0.1395
@<TRIPOS>BOND
     1    1    2 1
     2    1   22 1
     3    1   23 1
     4    1   24 1
     5    2    3 1
     6    2    9 am
     7    3    8 ar
     8    3    4 ar
     9    4    5 ar
    10    4   25 1
    11    5    6 ar
    12    5   26 1
    13    6    7 ar
    14    6   27 1
    15    7    8 ar
    16    7   28 1
    17    8   29 1
    18    9   10 2
    19    9   11 am
    20   11   12 1
    21   11   30 1
    22   12   17 ar
    23   12   13 ar
    24   13   14 ar
    25   13   31 1
    26   14   15 ar
    27   14   32 1
    28   15   16 ar
    29   15   21 1
    30   16   17 ar
    31   16   33 1
    32   17   18 1
    33   18   19 2
    34   18   20 1
@<TRIPOS>MOLECULE
ZINC12658851
   32    33     0     0     0
SMALL
USER_CHARGES
(Z)-2-[(3-bromobenzoyl)amino]-3-(4-chlorophenyl)prop-2-enoic acid
@<TRIPOS>ATOM
      1 C1         -3.8358    7.2898    0.0733 C.ar      1 <0>        -0.1190
      2 C2         -3.7608    5.9120    0.0835 C.ar      1 <0>        -0.0740
      3 C3         -4.2014    5.2001    1.2003 C.ar      1 <0>        -0.1136
      4 C4         -4.7054    5.8886    2.3052 C.ar      1 <0>        -0.0317
      5 C5         -4.7702    7.2671    2.2845 C.ar      1 <0>        -0.0982
      6 C6         -4.3361    7.9666    1.1710 C.ar      1 <0>        -0.0724
      7 Br1        -5.4523    8.2024    3.7797 Br        1 <0>        -0.0469
      8 C7         -4.1291    3.7238    1.2153 C.2       1 <0>         0.5537
      9 O1         -4.5090    3.1066    2.1914 O.2       1 <0>        -0.4882
     10 N1         -3.6421    3.0621    0.1470 N.am      1 <0>        -0.6664
     11 C8         -3.6653    1.6640    0.1203 C.2       1 <0>         0.1117
     12 C9         -2.5174    0.9714   -0.0692 C.2       1 <0>        -0.1336
     13 C10        -1.2270    1.6765   -0.0834 C.ar      1 <0>        -0.0267
     14 C11        -0.1198    1.1034   -0.7182 C.ar      1 <0>        -0.1023
     15 C12         1.0849    1.7730   -0.7328 C.ar      1 <0>        -0.1086
     16 C13         1.2023    3.0082   -0.1163 C.ar      1 <0>        -0.0469
     17 C14         0.1117    3.5793    0.5193 C.ar      1 <0>        -0.1073
     18 C15        -1.0991    2.9211    0.5428 C.ar      1 <0>        -0.1192
     19 Cl1         2.7233    3.8446   -0.1408 Cl        1 <0>        -0.0839
     20 C16        -4.9344    0.9473    0.2977 C.2       1 <0>         0.4881
     21 O2         -5.9512    1.5647    0.5491 O.co2     1 <0>        -0.6084
     22 H1         -3.4989    7.8412   -0.7920 H         1 <0>         0.1383
     23 H2         -3.3658    5.3853   -0.7726 H         1 <0>         0.1325
     24 H3         -5.0441    5.3438    3.1740 H         1 <0>         0.1480
     25 H4         -4.3881    9.0453    1.1597 H         1 <0>         0.1359
     26 H5         -3.2754    3.5555   -0.6033 H         1 <0>         0.3993
     27 H6         -2.5495   -0.0989   -0.2099 H         1 <0>         0.1513
     28 H7         -0.2099    0.1407   -1.1994 H         1 <0>         0.1356
     29 H8          1.9393    1.3339   -1.2263 H         1 <0>         0.1306
     30 H9          0.2106    4.5424    0.9977 H         1 <0>         0.1291
     31 H10        -1.9483    3.3673    1.0389 H         1 <0>         0.1401
     32 O3         -4.9722   -0.3959    0.1819 O.co2     1 <0>        -0.7471
@<TRIPOS>BOND
     1    1    6 ar
     2    1    2 ar
     3    1   22 1
     4    2    3 ar
     5    2   23 1
     6    3    4 ar
     7    3    8 1
     8    4    5 ar
     9    4   24 1
    10    5    6 ar
    11    5    7 1
    12    6   25 1
    13    8    9 2
    14    8   10 am
    15   10   11 1
    16   10   26 1
    17   11   12 2
    18   11   20 1
    19   12   13 1
    20   12   27 1
    21   13   18 ar
    22   13   14 ar
    23   14   15 ar
    24   14   28 1
    25   15   16 ar
    26   15   29 1
    27   16   17 ar
    28   16   19 1
    29   17   18 ar
    30   17   30 1
    31   18   31 1
    32   20   21 2
    33   20   32 1
@<TRIPOS>MOLECULE
ZINC13442596
   34    35     0     0     0
SMALL
USER_CHARGES
4-[2-[(2-iodobenzoyl)amino]ethyl]benzoic acid
@<TRIPOS>ATOM
      1 C1        -10.4461    7.0432    1.4965 C.ar      1 <0>        -0.1115
      2 C2        -11.0428    7.3728    2.7010 C.ar      1 <0>        -0.0938
      3 C3        -10.4376    7.0302    3.8964 C.ar      1 <0>        -0.0923
      4 C4         -9.2328    6.3557    3.8952 C.ar      1 <0>        -0.0642
      5 C5         -8.6260    6.0199    2.6833 C.ar      1 <0>        -0.1081
      6 C6         -9.2404    6.3738    1.4806 C.ar      1 <0>        -0.0838
      7 C7         -7.3361    5.2983    2.6738 C.2       1 <0>         0.5389
      8 O1         -6.8011    4.9959    3.7226 O.2       1 <0>        -0.4977
      9 N1         -6.7531    4.9757    1.5023 N.am      1 <0>        -0.7223
     10 C8         -5.4745    4.2605    1.4929 C.3       1 <0>         0.1243
     11 C9         -5.0357    4.0193    0.0471 C.3       1 <0>        -0.0826
     12 C10        -3.7205    3.2836    0.0374 C.ar      1 <0>        -0.0974
     13 C11        -3.7054    1.9000    0.0299 C.ar      1 <0>        -0.1305
     14 C12        -2.5051    1.2203    0.0206 C.ar      1 <0>        -0.0856
     15 C13        -1.3036    1.9317    0.0187 C.ar      1 <0>        -0.1113
     16 C14        -1.3262    3.3277    0.0322 C.ar      1 <0>        -0.0766
     17 C15        -2.5336    3.9948    0.0357 C.ar      1 <0>        -0.1313
     18 C16        -0.0144    1.2105    0.0087 C.2       1 <0>         0.4874
     19 O2          0.0021   -0.0041    0.0020 O.co2     1 <0>        -0.6314
     20 I1         -8.3172    5.8381    5.7070 I         1 <0>         0.0057
     21 H1        -10.9241    7.3142    0.5667 H         1 <0>         0.1348
     22 H2        -11.9851    7.9004    2.7075 H         1 <0>         0.1347
     23 H3        -10.9081    7.2910    4.8329 H         1 <0>         0.1353
     24 H4         -8.7741    6.1209    0.5398 H         1 <0>         0.1328
     25 H5         -7.1800    5.2170    0.6654 H         1 <0>         0.3964
     26 H6         -5.5897    3.3036    2.0020 H         1 <0>         0.0741
     27 H7         -4.7207    4.8570    2.0067 H         1 <0>         0.0744
     28 H8         -4.9205    4.9762   -0.4620 H         1 <0>         0.0747
     29 H9         -5.7895    3.4227   -0.4667 H         1 <0>         0.0744
     30 H10        -4.6355    1.3511    0.0310 H         1 <0>         0.1149
     31 H11        -2.4947    0.1404    0.0143 H         1 <0>         0.1265
     32 H12        -0.4005    3.8840    0.0353 H         1 <0>         0.1304
     33 H13        -2.5525    5.0746    0.0412 H         1 <0>         0.1151
     34 O3          1.1429    1.8999    0.0013 O.co2     1 <0>        -0.7544
@<TRIPOS>BOND
     1    1    6 ar
     2    1    2 ar
     3    1   21 1
     4    2    3 ar
     5    2   22 1
     6    3    4 ar
     7    3   23 1
     8    4    5 ar
     9    4   20 1
    10    5    6 ar
    11    5    7 1
    12    6   24 1
    13    7    8 2
    14    7    9 am
    15    9   10 1
    16    9   25 1
    17   10   11 1
    18   10   26 1
    19   10   27 1
    20   11   12 1
    21   11   28 1
    22   11   29 1
    23   12   17 ar
    24   12   13 ar
    25   13   14 ar
    26   13   30 1
    27   14   15 ar
    28   14   31 1
    29   15   16 ar
    30   15   18 1
    31   16   17 ar
    32   16   32 1
    33   17   33 1
    34   18   19 2
    35   18   34 1
@<TRIPOS>MOLECULE
ZINC34957807
   28    29     0     0     0
SMALL
USER_CHARGES

@<TRIPOS>ATOM
      1 C1         -0.0184    1.5028    0.0103 C.3       1 <0>        -0.0871
      2 C2          0.0021   -0.0041    0.0020 C.2       1 <0>        -0.0908
      3 C3          0.0067   -0.7233   -1.1614 C.2       1 <0>        -0.2069
      4 C4          0.0262   -2.0993   -1.0879 C.2       1 <0>        -0.0542
      5 S1          0.0383   -2.4210    0.5610 S.3       1 <0>         0.2881
      6 C5          0.0234   -0.7488    1.1778 C.2       1 <0>        -0.2297
      7 C6          0.0294   -0.2961    2.5148 C.2       1 <0>         0.5519
      8 O1          0.0149    0.9060    2.7550 O.co2     1 <0>        -0.6729
      9 O2          0.0492   -1.1050    3.4357 O.co2     1 <0>        -0.6874
     10 N1          0.0336   -3.0093   -2.1344 N.am      1 <0>        -0.6072
     11 C7          0.0532   -4.3321   -1.8770 C.2       1 <0>         0.5421
     12 O3          0.0645   -4.7276   -0.7276 O.2       1 <0>        -0.4934
     13 C8          0.0611   -5.3019   -2.9923 C.ar      1 <0>        -0.1194
     14 C9          0.0540   -4.8508   -4.3137 C.ar      1 <0>        -0.0694
     15 C10         0.0614   -5.7609   -5.3501 C.ar      1 <0>        -0.1197
     16 C11         0.0758   -7.1185   -5.0829 C.ar      1 <0>        -0.0605
     17 C12         0.0825   -7.5727   -3.7756 C.ar      1 <0>        -0.1099
     18 C13         0.0815   -6.6724   -2.7292 C.ar      1 <0>        -0.0237
     19 I1          0.1029   -9.6307   -3.3839 I         1 <0>        -0.0305
     20 H1          1.0042    1.8801    0.0026 H         1 <0>         0.0581
     21 H2         -0.5455    1.8639   -0.8728 H         1 <0>         0.0432
     22 H3         -0.5286    1.8543    0.9071 H         1 <0>         0.0936
     23 H4         -0.0051   -0.2229   -2.1184 H         1 <0>         0.1192
     24 H5          0.0246   -2.6937   -3.0515 H         1 <0>         0.4102
     25 H6          0.0424   -3.7915   -4.5238 H         1 <0>         0.1338
     26 H7          0.0555   -5.4131   -6.3725 H         1 <0>         0.1401
     27 H8          0.0815   -7.8269   -5.8981 H         1 <0>         0.1352
     28 H9          0.0916   -7.0277   -1.7094 H         1 <0>         0.1474
@<TRIPOS>BOND
     1    1    2 1
     2    1   20 1
     3    1   21 1
     4    1   22 1
     5    2    6 2
     6    2    3 1
     7    3    4 2
     8    3   23 1
     9    4    5 1
    10    4   10 1
    11    5    6 1
    12    6    7 1
    13    7    8 2
    14    7    9 1
    15   10   11 am
    16   10   24 1
    17   11   12 2
    18   11   13 1
    19   13   18 ar
    20   13   14 ar
    21   14   15 ar
    22   14   25 1
    23   15   16 ar
    24   15   26 1
    25   16   17 ar
    26   16   27 1
    27   17   18 ar
    28   17   19 1
    29   18   28 1
@<TRIPOS>MOLECULE
ZINC35485098
   38    41     0     0     0
SMALL
USER_CHARGES

@<TRIPOS>ATOM
      1 C1         -1.3528   -0.8552   -1.8376 C.ar      1 <0>        -0.1042
      2 C2         -0.3272   -0.0331   -2.2687 C.ar      1 <0>        -0.1225
      3 C3          0.9837   -0.4544   -2.1762 C.ar      1 <0>        -0.0909
      4 C4          1.2733   -1.7113   -1.6471 C.ar      1 <0>        -0.0136
      5 C5          0.2355   -2.5354   -1.2143 C.ar      1 <0>        -0.0871
      6 C6         -1.0715   -2.1033   -1.3117 C.ar      1 <0>        -0.1128
      7 C7          2.6793   -2.1698   -1.5455 C.2       1 <0>         0.1386
      8 C8          3.2591   -2.9723   -0.4629 C.2       1 <0>        -0.2052
      9 C9          4.5895   -3.1593   -0.7867 C.2       1 <0>         0.0930
     10 N1          4.8201   -2.5359   -1.9558 N.pl3     1 <0>        -0.4707
     11 H1          5.6740   -2.5078   -2.4151 H         1 <0>         0.4411
     12 N2          3.6410   -1.9393   -2.4110 N.2       1 <0>        -0.2860
     13 C10         2.5643   -3.4759    0.7282 C.2       1 <0>         0.0123
     14 C11         3.1416   -4.4353    1.4960 C.2       1 <0>        -0.1655
     15 C12         2.7085   -4.9988    2.7954 C.2       1 <0>         0.4687
     16 N3          1.6052   -4.5875    3.4056 N.2       1 <0>        -0.5622
     17 C13         0.8949   -3.5402    2.8972 C.ar      1 <0>         0.1532
     18 C14        -0.3825   -3.7491    2.3670 C.ar      1 <0>        -0.1304
     19 C15        -1.0953   -2.6857    1.8551 C.ar      1 <0>        -0.1283
     20 C16        -0.5486   -1.4120    1.8647 C.ar      1 <0>         0.0594
     21 C17         0.7166   -1.1979    2.3885 C.ar      1 <0>        -0.1309
     22 C18         1.4381   -2.2513    2.9089 C.ar      1 <0>        -0.1404
     23 F1         -1.2521   -0.3746    1.3607 F         1 <0>        -0.1462
     24 N4          3.4859   -5.9369    3.3122 N.2       1 <0>        -0.6448
     25 C19         4.5831   -6.3533    2.7152 C.2       1 <0>         0.5466
     26 O1          5.4566   -7.2953    3.1315 O.3       1 <0>        -0.5757
     27 S1          4.6348   -5.3797    1.2191 S.3       1 <0>        -0.2733
     28 H2         -2.3769   -0.5195   -1.9078 H         1 <0>         0.1204
     29 H3         -0.5528    0.9402   -2.6788 H         1 <0>         0.1218
     30 H4          1.7836    0.1881   -2.5134 H         1 <0>         0.1229
     31 H5          0.4539   -3.5102   -0.8038 H         1 <0>         0.1248
     32 H6         -1.8763   -2.7408   -0.9764 H         1 <0>         0.1237
     33 H7          5.3149   -3.7080   -0.2044 H         1 <0>         0.1959
     34 H8          1.5939   -3.0831    0.9937 H         1 <0>         0.1592
     35 H9         -0.8094   -4.7411    2.3583 H         1 <0>         0.1298
     36 H10        -2.0817   -2.8455    1.4455 H         1 <0>         0.1284
     37 H11         1.1368   -0.2030    2.3925 H         1 <0>         0.1263
     38 H12         2.4221   -2.0823    3.3209 H         1 <0>         0.1247
@<TRIPOS>BOND
     1    1    6 ar
     2    1    2 ar
     3    1   28 1
     4    2    3 ar
     5    2   29 1
     6    3    4 ar
     7    3   30 1
     8    4    5 ar
     9    4    7 1
    10    5    6 ar
    11    5   31 1
    12    6   32 1
    13    7   12 2
    14    7    8 1
    15    8    9 2
    16    8   13 1
    17    9   10 1
    18    9   33 1
    19   10   11 1
    20   10   12 1
    21   13   14 2
    22   13   34 1
    23   14   27 1
    24   14   15 1
    25   15   16 2
    26   15   24 1
    27   16   17 1
    28   17   22 ar
    29   17   18 ar
    30   18   19 ar
    31   18   35 1
    32   19   20 ar
    33   19   36 1
    34   20   21 ar
    35   20   23 1
    36   21   22 ar
    37   21   37 1
    38   22   38 1
    39   24   25 2
    40   25   26 1
    41   25   27 1
@<TRIPOS>MOLECULE
ZINC16122053
   36    37     0     0     0
SMALL
USER_CHARGES

@<TRIPOS>ATOM
      1 C1          1.8477    0.5044    1.4637 C.3       1 <0>        -0.1446
      2 C2          1.6358    1.5162    0.3357 C.3       1 <0>        -0.1135
      3 C3          2.2109    2.8716    0.7517 C.3       1 <0>        -0.1321
      4 C4          2.3353    1.0344   -0.9092 C.2       1 <0>         0.5040
      5 O1          3.2079    1.7089   -1.4141 O.2       1 <0>        -0.5275
      6 N1          1.9912   -0.1458   -1.4616 N.am      1 <0>        -0.6592
      7 C5          2.5722   -0.5492   -2.6715 C.ar      1 <0>         0.0205
      8 C6          1.8234   -1.2639   -3.5969 C.ar      1 <0>        -0.0939
      9 C7          2.3954   -1.6609   -4.7890 C.ar      1 <0>        -0.1672
     10 C8          3.7200   -1.3454   -5.0626 C.ar      1 <0>         0.2726
     11 C9          4.4689   -0.6305   -4.1368 C.ar      1 <0>        -0.2511
     12 C10         3.8949   -0.2290   -2.9471 C.ar      1 <0>        -0.0541
     13 N2          4.3000   -1.7480   -6.2703 N.2       1 <0>        -1.0851
     14 S1          5.8794   -1.3718   -6.5964 S.o2      1 <0>         2.6261
     15 O2          5.9428    0.0424   -6.7201 O.2       1 <0>        -1.0159
     16 O3          6.6699   -2.0908   -5.6597 O.2       1 <0>        -1.0190
     17 C11         6.2552   -2.0336   -8.1856 C.2       1 <0>        -0.6590
     18 C12         6.1349   -1.4504   -9.4028 C.2       1 <0>        -0.0402
     19 C13         6.4943   -2.1679  -10.5288 C.2       1 <0>        -0.1598
     20 C14         6.9565   -3.4347  -10.3809 C.2       1 <0>        -0.1179
     21 S2          6.9004   -3.6435   -8.6087 S.3       1 <0>         0.1997
     22 Cl1         7.4748   -4.5586  -11.5982 Cl        1 <0>         0.0121
     23 H1          1.4380   -0.4612    1.1673 H         1 <0>         0.0595
     24 H2          2.9143    0.4008    1.6632 H         1 <0>         0.0613
     25 H3          1.3418    0.8528    2.3641 H         1 <0>         0.0651
     26 H4          0.5693    1.6198    0.1362 H         1 <0>         0.0949
     27 H5          3.2775    2.7680    0.9512 H         1 <0>         0.0619
     28 H6          2.0599    3.5924   -0.0519 H         1 <0>         0.0618
     29 H7          1.7050    3.2200    1.6521 H         1 <0>         0.0577
     30 H8          1.3414   -0.7161   -1.0217 H         1 <0>         0.3990
     31 H9          0.7934   -1.5095   -3.3840 H         1 <0>         0.1084
     32 H10         1.8130   -2.2172   -5.5087 H         1 <0>         0.1174
     33 H11         5.4989   -0.3850   -4.3494 H         1 <0>         0.0997
     34 H12         4.4759    0.3307   -2.2291 H         1 <0>         0.1206
     35 H13         5.7636   -0.4402   -9.4921 H         1 <0>         0.1528
     36 H14         6.4079   -1.7269  -11.5109 H         1 <0>         0.1453
@<TRIPOS>BOND
     1    1    2 1
     2    1   23 1
     3    1   24 1
     4    1   25 1
     5    2    3 1
     6    2    4 1
     7    2   26 1
     8    3   27 1
     9    3   28 1
    10    3   29 1
    11    4    5 2
    12    4    6 am
    13    6    7 1
    14    6   30 1
    15    7   12 ar
    16    7    8 ar
    17    8    9 ar
    18    8   31 1
    19    9   10 ar
    20    9   32 1
    21   10   11 ar
    22   10   13 1
    23   11   12 ar
    24   11   33 1
    25   12   34 1
    26   13   14 1
    27   14   15 2
    28   14   16 2
    29   14   17 1
    30   17   21 1
    31   17   18 2
    32   18   19 1
    33   18   35 1
    34   19   20 2
    35   19   36 1
    36   20   21 1
    37   20   22 1
@<TRIPOS>MOLECULE
ZINC00753200
   42    43     0     0     0
SMALL
USER_CHARGES
2-(2-bromo-4-methyl-phenoxy)-N-(4-isopropylphenyl)-acetamide
@<TRIPOS>ATOM
      1 C1         -2.5546    3.8656    0.0777 C.3       1 <0>        -0.1120
      2 C2         -1.2381    3.1326    0.0541 C.ar      1 <0>        -0.1151
      3 C3         -1.2180    1.7500    0.0442 C.ar      1 <0>        -0.0644
      4 C4         -0.0127    1.0753    0.0279 C.ar      1 <0>        -0.2009
      5 C5          1.1786    1.7858    0.0103 C.ar      1 <0>         0.1474
      6 C6          1.1562    3.1735    0.0149 C.ar      1 <0>        -0.1178
      7 C7         -0.0527    3.8437    0.0370 C.ar      1 <0>        -0.0529
      8 Br1         2.7775    4.1465   -0.0097 Br        1 <0>        -0.0287
      9 O1          2.3657    1.1242   -0.0119 O.3       1 <0>        -0.2758
     10 C8          2.3125   -0.3038   -0.0158 C.3       1 <0>         0.0411
     11 C9          3.7134   -0.8586   -0.0413 C.2       1 <0>         0.5145
     12 O2          4.6638   -0.1053   -0.0547 O.2       1 <0>        -0.4869
     13 N1          3.9102   -2.1919   -0.0491 N.am      1 <0>        -0.6701
     14 C10         5.2054   -2.7073   -0.1703 C.ar      1 <0>         0.1358
     15 C11         5.4223   -3.8867   -0.8707 C.ar      1 <0>        -0.1389
     16 C12         6.7028   -4.3892   -0.9942 C.ar      1 <0>        -0.0968
     17 C13         7.7666   -3.7261   -0.4105 C.ar      1 <0>        -0.0861
     18 C14         7.5532   -2.5548    0.2929 C.ar      1 <0>        -0.0993
     19 C15         6.2759   -2.0435    0.4144 C.ar      1 <0>        -0.1155
     20 C16         9.1617   -4.2809   -0.5415 C.3       1 <0>        -0.0575
     21 C17         9.2141   -5.6800    0.0753 C.3       1 <0>        -0.1446
     22 C18         9.5416   -4.3613   -2.0214 C.3       1 <0>        -0.1453
     23 H1         -2.8887    4.0455   -0.9441 H         1 <0>         0.0728
     24 H2         -3.2965    3.2632    0.6018 H         1 <0>         0.0692
     25 H3         -2.4308    4.8184    0.5925 H         1 <0>         0.0692
     26 H4         -2.1457    1.1970    0.0531 H         1 <0>         0.1337
     27 H5          0.0021   -0.0046    0.0244 H         1 <0>         0.1366
     28 H6         -0.0710    4.9236    0.0406 H         1 <0>         0.1406
     29 H7          1.8005   -0.6508    0.8817 H         1 <0>         0.0992
     30 H8          1.7706   -0.6448   -0.8980 H         1 <0>         0.0996
     31 H9          3.1539   -2.7942    0.0293 H         1 <0>         0.4120
     32 H10         4.5911   -4.4078   -1.3224 H         1 <0>         0.1256
     33 H11         6.8729   -5.3034   -1.5435 H         1 <0>         0.1262
     34 H12         8.3862   -2.0390    0.7473 H         1 <0>         0.1257
     35 H13         6.1100   -1.1283    0.9632 H         1 <0>         0.1389
     36 H14         9.8626   -3.6280   -0.0214 H         1 <0>         0.0780
     37 H15         8.5131   -6.3329   -0.4448 H         1 <0>         0.0565
     38 H16        10.2231   -6.0813   -0.0194 H         1 <0>         0.0586
     39 H17         8.9434   -5.6227    1.1296 H         1 <0>         0.0560
     40 H18         9.5042   -3.3645   -2.4608 H         1 <0>         0.0563
     41 H19        10.5506   -4.7626   -2.1161 H         1 <0>         0.0587
     42 H20         8.8406   -5.0142   -2.5415 H         1 <0>         0.0564
@<TRIPOS>BOND
     1    1    2 1
     2    1   23 1
     3    1   24 1
     4    1   25 1
     5    2    7 ar
     6    2    3 ar
     7    3    4 ar
     8    3   26 1
     9    4    5 ar
    10    4   27 1
    11    5    6 ar
    12    5    9 1
    13    6    7 ar
    14    6    8 1
    15    7   28 1
    16    9   10 1
    17   10   11 1
    18   10   29 1
    19   10   30 1
    20   11   12 2
    21   11   13 am
    22   13   14 1
    23   13   31 1
    24   14   19 ar
    25   14   15 ar
    26   15   16 ar
    27   15   32 1
    28   16   17 ar
    29   16   33 1
    30   17   18 ar
    31   17   20 1
    32   18   19 ar
    33   18   34 1
    34   19   35 1
    35   20   21 1
    36   20   22 1
    37   20   36 1
    38   21   37 1
    39   21   38 1
    40   21   39 1
    41   22   40 1
    42   22   41 1
    43   22   42 1
@<TRIPOS>MOLECULE
ZINC01114283
   47    50     0     0     0
SMALL
USER_CHARGES
2-(4-ethylphenyl)-N-(2-thienylmethyl)quinoline-4-carboxamide
@<TRIPOS>ATOM
      1 C1         -6.7399   -0.5552    7.8725 C.3       1 <0>        -0.1478
      2 C2         -5.2864   -0.3318    8.2946 C.3       1 <0>        -0.0895
      3 C3         -4.6322    0.6411    7.3478 C.ar      1 <0>        -0.0646
      4 C4         -4.6764    1.9977    7.6146 C.ar      1 <0>        -0.1230
      5 C5         -4.0794    2.8933    6.7509 C.ar      1 <0>        -0.0696
      6 C6         -3.4306    2.4285    5.6080 C.ar      1 <0>        -0.0634
      7 C7         -3.3939    1.0607    5.3415 C.ar      1 <0>        -0.0949
      8 C8         -3.9901    0.1741    6.2149 C.ar      1 <0>        -0.1208
      9 C9         -2.7873    3.3859    4.6761 C.ar      1 <0>         0.2007
     10 C10        -2.1465    2.8892    3.5307 C.ar      1 <0>        -0.1232
     11 C11        -1.5355    3.7743    2.6543 C.ar      1 <0>        -0.0718
     12 C12        -1.6087    5.1990    2.9791 C.ar      1 <0>        -0.0669
     13 C13        -1.0272    6.1679    2.1540 C.ar      1 <0>        -0.0998
     14 C14        -1.1184    7.4850    2.4942 C.ar      1 <0>        -0.1118
     15 C15        -1.7841    7.8784    3.6533 C.ar      1 <0>        -0.0966
     16 C16        -2.3611    6.9622    4.4776 C.ar      1 <0>        -0.0944
     17 C17        -2.2869    5.5932    4.1599 C.ar      1 <0>         0.1308
     18 N1         -2.8418    4.6722    4.9493 N.ar      1 <0>        -0.4504
     19 C18        -0.8431    3.2973    1.4374 C.2       1 <0>         0.5672
     20 O1         -0.4060    4.0976    0.6337 O.2       1 <0>        -0.5183
     21 N2         -0.6970    1.9753    1.2196 N.am      1 <0>        -0.7192
     22 C19        -0.0113    1.5029    0.0143 C.3       1 <0>         0.2080
     23 C20         0.0178   -0.0038    0.0109 C.2       1 <0>        -0.1821
     24 C21        -0.8863   -0.8739   -0.5019 C.2       1 <0>        -0.1270
     25 C22        -0.6479   -2.2310   -0.3916 C.2       1 <0>        -0.1647
     26 C23         0.4777   -2.6518    0.2355 C.2       1 <0>        -0.1593
     27 S1          1.2481   -1.1061    0.6880 S.3       1 <0>         0.0552
     28 H1         -7.2758    0.3936    7.8989 H         1 <0>         0.0566
     29 H2         -6.7664   -0.9594    6.8606 H         1 <0>         0.0561
     30 H3         -7.2131   -1.2589    8.5573 H         1 <0>         0.0597
     31 H4         -4.7505   -1.2806    8.2682 H         1 <0>         0.0738
     32 H5         -5.2599    0.0724    9.3065 H         1 <0>         0.0741
     33 H6         -5.1793    2.3567    8.5004 H         1 <0>         0.1266
     34 H7         -4.1152    3.9523    6.9598 H         1 <0>         0.1364
     35 H8         -2.8967    0.6954    4.4551 H         1 <0>         0.1246
     36 H9         -3.9591   -0.8861    6.0114 H         1 <0>         0.1268
     37 H10        -2.1255    1.8272    3.3353 H         1 <0>         0.1425
     38 H11        -0.5088    5.8742    1.2531 H         1 <0>         0.1637
     39 H12        -0.6695    8.2327    1.8572 H         1 <0>         0.1315
     40 H13        -1.8433    8.9278    3.9015 H         1 <0>         0.1331
     41 H14        -2.8739    7.2844    5.3719 H         1 <0>         0.1389
     42 H15        -1.0458    1.3367    1.8610 H         1 <0>         0.4037
     43 H16         1.0091    1.8860    0.0030 H         1 <0>         0.0892
     44 H17        -0.5425    1.8580   -0.8687 H         1 <0>         0.0968
     45 H18        -1.7782   -0.5121   -0.9919 H         1 <0>         0.1364
     46 H19        -1.3503   -2.9454   -0.7950 H         1 <0>         0.1376
     47 H20         0.8196   -3.6603    0.4150 H         1 <0>         0.1888
@<TRIPOS>BOND
     1    1    2 1
     2    1   28 1
     3    1   29 1
     4    1   30 1
     5    2    3 1
     6    2   31 1
     7    2   32 1
     8    3    8 ar
     9    3    4 ar
    10    4    5 ar
    11    4   33 1
    12    5    6 ar
    13    5   34 1
    14    6    7 ar
    15    6    9 1
    16    7    8 ar
    17    7   35 1
    18    8   36 1
    19    9   18 ar
    20    9   10 ar
    21   10   11 ar
    22   10   37 1
    23   11   12 ar
    24   11   19 1
    25   12   17 ar
    26   12   13 ar
    27   13   14 ar
    28   13   38 1
    29   14   15 ar
    30   14   39 1
    31   15   16 ar
    32   15   40 1
    33   16   17 ar
    34   16   41 1
    35   17   18 ar
    36   19   20 2
    37   19   21 am
    38   21   22 1
    39   21   42 1
    40   22   23 1
    41   22   43 1
    42   22   44 1
    43   23   27 1
    44   23   24 2
    45   24   25 1
    46   24   45 1
    47   25   26 2
    48   25   46 1
    49   26   27 1
    50   26   47 1
@<TRIPOS>MOLECULE
ZINC12572803
   49    51     0     0     0
SMALL
USER_CHARGES
N-[[(E)-1-methyl-3-phenyl-prop-2-enylidene]amino]-2,2-diphenyl-acetamide
@<TRIPOS>ATOM
      1 C1         -4.4893    1.9121    2.0925 C.3       1 <0>        -0.1552
      2 C2         -3.5443    2.8934    2.7368 C.2       1 <0>         0.1288
      3 N1         -2.2896    2.9135    2.3887 N.2       1 <0>        -0.2371
      4 N2         -1.8182    2.0229    1.4153 N.am      1 <0>        -0.5785
      5 C3         -0.5197    2.0438    1.0550 C.2       1 <0>         0.5385
      6 O1          0.2410    2.8337    1.5737 O.2       1 <0>        -0.4881
      7 C4         -0.0127    1.0858    0.0080 C.3       1 <0>        -0.0185
      8 C5          1.4610    1.3133   -0.2096 C.ar      1 <0>        -0.0716
      9 C6          2.3476    0.2589   -0.0947 C.ar      1 <0>        -0.1071
     10 C7          3.6989    0.4667   -0.2990 C.ar      1 <0>        -0.1229
     11 C8          4.1648    1.7308   -0.6084 C.ar      1 <0>        -0.1135
     12 C9          3.2789    2.7864   -0.7177 C.ar      1 <0>        -0.1217
     13 C10         1.9270    2.5776   -0.5185 C.ar      1 <0>        -0.0799
     14 C11        -0.7528    1.3164   -1.2843 C.ar      1 <0>        -0.0850
     15 C12        -0.8456    2.5917   -1.8096 C.ar      1 <0>        -0.1074
     16 C13        -1.5204    2.8025   -2.9975 C.ar      1 <0>        -0.1140
     17 C14        -2.1108    1.7395   -3.6550 C.ar      1 <0>        -0.1138
     18 C15        -2.0228    0.4651   -3.1269 C.ar      1 <0>        -0.1161
     19 C16        -1.3436    0.2535   -1.9416 C.ar      1 <0>        -0.1089
     20 C17        -4.0214    3.7949    3.7220 C.2       1 <0>        -0.1316
     21 C18        -3.1756    4.6730    4.2986 C.2       1 <0>        -0.0425
     22 C19        -3.6709    5.6088    5.3213 C.ar      1 <0>        -0.0716
     23 C20        -5.0186    5.5941    5.6936 C.ar      1 <0>        -0.1055
     24 C21        -5.4737    6.4699    6.6566 C.ar      1 <0>        -0.1221
     25 C22        -4.6027    7.3696    7.2459 C.ar      1 <0>        -0.1121
     26 C23        -3.2686    7.3942    6.8787 C.ar      1 <0>        -0.1216
     27 C24        -2.7971    6.5208    5.9214 C.ar      1 <0>        -0.0979
     28 H1         -4.5028    0.9878    2.6702 H         1 <0>         0.0862
     29 H2         -5.4923    2.3380    2.0650 H         1 <0>         0.0882
     30 H3         -4.1564    1.7006    1.0764 H         1 <0>         0.0665
     31 H4         -2.4265    1.3913    1.0006 H         1 <0>         0.3868
     32 H5         -0.1767    0.0616    0.3428 H         1 <0>         0.1150
     33 H6          1.9840   -0.7279    0.1511 H         1 <0>         0.1217
     34 H7          4.3910   -0.3579   -0.2132 H         1 <0>         0.1237
     35 H8          5.2209    1.8939   -0.7644 H         1 <0>         0.1224
     36 H9          3.6430    3.7741   -0.9591 H         1 <0>         0.1227
     37 H10         1.2349    3.4023   -0.6039 H         1 <0>         0.1202
     38 H11        -0.3879    3.4228   -1.2937 H         1 <0>         0.1222
     39 H12        -1.5894    3.7983   -3.4100 H         1 <0>         0.1250
     40 H13        -2.6412    1.9048   -4.5812 H         1 <0>         0.1247
     41 H14        -2.4844   -0.3653   -3.6404 H         1 <0>         0.1263
     42 H15        -1.2748   -0.7422   -1.5290 H         1 <0>         0.1260
     43 H16        -5.0619    3.7781    4.0107 H         1 <0>         0.1361
     44 H17        -2.1351    4.6898    4.0099 H         1 <0>         0.1357
     45 H18        -5.7004    4.8956    5.2314 H         1 <0>         0.1268
     46 H19        -6.5135    6.4568    6.9484 H         1 <0>         0.1248
     47 H20        -4.9660    8.0559    7.9966 H         1 <0>         0.1234
     48 H21        -2.5950    8.0994    7.3428 H         1 <0>         0.1253
     49 H22        -1.7557    6.5409    5.6361 H         1 <0>         0.1271
@<TRIPOS>BOND
     1    1    2 1
     2    1   28 1
     3    1   29 1
     4    1   30 1
     5    2    3 2
     6    2   20 1
     7    3    4 1
     8    4    5 am
     9    4   31 1
    10    5    6 2
    11    5    7 1
    12    7    8 1
    13    7   14 1
    14    7   32 1
    15    8   13 ar
    16    8    9 ar
    17    9   10 ar
    18    9   33 1
    19   10   11 ar
    20   10   34 1
    21   11   12 ar
    22   11   35 1
    23   12   13 ar
    24   12   36 1
    25   13   37 1
    26   14   19 ar
    27   14   15 ar
    28   15   16 ar
    29   15   38 1
    30   16   17 ar
    31   16   39 1
    32   17   18 ar
    33   17   40 1
    34   18   19 ar
    35   18   41 1
    36   19   42 1
    37   20   21 2
    38   20   43 1
    39   21   22 1
    40   21   44 1
    41   22   27 ar
    42   22   23 ar
    43   23   24 ar
    44   23   45 1
    45   24   25 ar
    46   24   46 1
    47   25   26 ar
    48   25   47 1
    49   26   27 ar
    50   26   48 1
    51   27   49 1
@<TRIPOS>MOLECULE
ZINC20133421
   42    43     0     0     0
SMALL
USER_CHARGES
(2S)-2-bromo-3-methyl-N-(6-sec-butyl-1,3-benzothiazol-2-yl)butanamide
@<TRIPOS>ATOM
      1 C1          3.6842   -0.7646    1.9399 C.3       1 <0>        -0.1566
      2 C2          2.3385   -0.0862    1.6759 C.3       1 <0>        -0.1174
      3 C3          2.5515    1.1401    0.7860 C.3       1 <0>        -0.0499
      4 H1          3.2838    1.8168    1.2506 H         1 <0>         0.0819
      5 C4          3.0554    0.6922   -0.5875 C.3       1 <0>        -0.1489
      6 C5          1.2470    1.8776    0.6265 C.ar      1 <0>        -0.0570
      7 C6          0.1489    1.2452    0.0612 C.ar      1 <0>        -0.1002
      8 C7         -1.0468    1.8947   -0.1004 C.ar      1 <0>        -0.0614
      9 C8         -1.2022    3.2369    0.3172 C.ar      1 <0>         0.0977
     10 C9         -0.0631    3.8486    0.8884 C.ar      1 <0>        -0.1426
     11 C10         1.1323    3.1916    1.0415 C.ar      1 <0>        -0.0612
     12 S1         -0.6573    5.4810    1.2608 S.3       1 <0>        -0.0003
     13 C11        -2.3239    5.2567    0.6556 C.2       1 <0>         0.3753
     14 N1         -2.3040    4.0136    0.2348 N.2       1 <0>        -0.5062
     15 N2         -3.3706    6.1642    0.6356 N.am      1 <0>        -0.6294
     16 C12        -4.5669    5.8020    0.1315 C.2       1 <0>         0.5085
     17 O1         -4.7272    4.6819   -0.3046 O.2       1 <0>        -0.4455
     18 C13        -5.7055    6.7891    0.1098 C.3       1 <0>        -0.0743
     19 H2         -5.2811    7.6250    0.6853 H         1 <0>         0.1264
     20 C14        -6.8275    6.2936    1.0243 C.3       1 <0>        -0.0898
     21 C15        -6.3191    6.2280    2.4658 C.3       1 <0>        -0.1562
     22 C16        -8.0131    7.2575    0.9451 C.3       1 <0>        -0.1566
     23 Br1        -6.3858    6.9644   -1.7264 Br        1 <0>        -0.0636
     24 H3          3.5311   -1.6462    2.5797 H         1 <0>         0.0560
     25 H4          4.3584   -0.0574    2.4453 H         1 <0>         0.0550
     26 H5          4.1306   -1.0778    0.9846 H         1 <0>         0.0589
     27 H6          1.6643   -0.7934    1.1705 H         1 <0>         0.0663
     28 H7          1.8921    0.2270    2.6312 H         1 <0>         0.0645
     29 H8          3.2085    1.5738   -1.2273 H         1 <0>         0.0573
     30 H9          2.3124    0.0270   -1.0516 H         1 <0>         0.0593
     31 H10         4.0075    0.1538   -0.4710 H         1 <0>         0.0648
     32 H11         0.2400    0.2190   -0.2629 H         1 <0>         0.1339
     33 H12        -1.8809    1.3746   -0.5479 H         1 <0>         0.1341
     34 H13         1.9780    3.6978    1.4830 H         1 <0>         0.1328
     35 H14        -3.2252    7.1803    1.0311 H         1 <0>         0.4566
     36 H15        -7.1473    5.2916    0.7024 H         1 <0>         0.0934
     37 H16        -7.1258    5.8717    3.1233 H         1 <0>         0.0739
     38 H17        -5.9993    7.2300    2.7877 H         1 <0>         0.0634
     39 H18        -5.4667    5.5351    2.5228 H         1 <0>         0.0556
     40 H19        -8.8198    6.9013    1.6026 H         1 <0>         0.0684
     41 H20        -8.3787    7.3047   -0.0913 H         1 <0>         0.0715
     42 H21        -7.6932    8.2595    1.2671 H         1 <0>         0.0615
@<TRIPOS>BOND
     1    1    2 1
     2    1   24 1
     3    1   25 1
     4    1   26 1
     5    2    3 1
     6    2   27 1
     7    2   28 1
     8    3    4 1
     9    3    5 1
    10    3    6 1
    11    5   29 1
    12    5   30 1
    13    5   31 1
    14    6   11 ar
    15    6    7 ar
    16    7    8 ar
    17    7   32 1
    18    8    9 ar
    19    8   33 1
    20    9   14 1
    21    9   10 ar
    22   10   11 ar
    23   10   12 1
    24   11   34 1
    25   12   13 1
    26   13   14 2
    27   13   15 1
    28   15   16 am
    29   15   35 1
    30   16   17 2
    31   16   18 1
    32   18   19 1
    33   18   20 1
    34   18   23 1
    35   20   21 1
    36   20   22 1
    37   20   36 1
    38   21   37 1
    39   21   38 1
    40   21   39 1
    41   22   40 1
    42   22   41 1
    43   22   42 1
@<TRIPOS>MOLECULE
ZINC40898679
   58    60     0     0     0
SMALL
USER_CHARGES

@<TRIPOS>ATOM
      1 C1          0.5260    1.2330    0.7843 C.3       1 <0>        -0.1239
      2 C2          2.0079    1.6114    0.8239 C.3       1 <0>        -0.1197
      3 C3          2.6644    1.2420   -0.5079 C.3       1 <0>        -0.1007
      4 C4          2.5286   -0.2637   -0.7431 C.3       1 <0>        -0.1030
      5 C5          1.0466   -0.6421   -0.7827 C.3       1 <0>        -0.1137
      6 C6          0.3902   -0.2727    0.5490 C.3       1 <0>        -0.1168
      7 C7          3.1751   -0.6276   -2.0548 C.2       1 <0>         0.4838
      8 O1          3.6933    0.2325   -2.7344 O.2       1 <0>        -0.4051
      9 N1          3.1773   -1.9090   -2.4725 N.am      1 <0>        -0.6539
     10 C8          3.7556   -2.2343   -3.6457 C.2       1 <0>         0.5225
     11 S1          4.3610   -1.0048   -4.6717 S.2       1 <0>        -0.5121
     12 N2          3.8572   -3.5276   -4.0111 N.pl3     1 <0>        -0.5510
     13 C9          4.5785   -3.8888   -5.2339 C.3       1 <0>         0.1606
     14 C10         6.0155   -3.3701   -5.1505 C.3       1 <0>        -0.1594
     15 C11         6.7688   -3.7473   -6.4276 C.3       1 <0>        -0.1068
     16 C12         6.0699   -3.1209   -7.6359 C.3       1 <0>        -0.1204
     17 C13         4.6329   -3.6396   -7.7194 C.3       1 <0>        -0.1075
     18 C14         3.8795   -3.2624   -6.4422 C.3       1 <0>        -0.1611
     19 C15         3.2462   -4.5723   -3.1854 C.3       1 <0>         0.1155
     20 C16         1.7470   -4.3005   -3.0460 C.3       1 <0>        -0.1438
     21 C17         1.1090   -5.3915   -2.1836 C.3       1 <0>        -0.1168
     22 C18         1.7583   -5.3914   -0.7983 C.3       1 <0>        -0.1274
     23 C19         3.2575   -5.6632   -0.9377 C.3       1 <0>        -0.1173
     24 C20         3.8956   -4.5722   -1.8000 C.3       1 <0>        -0.1436
     25 H1          0.0583    1.4961    1.7330 H         1 <0>         0.0653
     26 H2          0.0346    1.7729   -0.0251 H         1 <0>         0.0647
     27 H3          2.1047    2.6840    0.9914 H         1 <0>         0.0693
     28 H4          2.4993    1.0714    1.6332 H         1 <0>         0.0632
     29 H5          2.1730    1.7819   -1.3173 H         1 <0>         0.0744
     30 H6          3.7201    1.5115   -0.4797 H         1 <0>         0.0734
     31 H7          3.0199   -0.8037    0.0663 H         1 <0>         0.0991
     32 H8          0.5553   -0.1022   -1.5921 H         1 <0>         0.0733
     33 H9          0.9499   -1.7148   -0.9503 H         1 <0>         0.0595
     34 H10         0.8816   -0.8127    1.3584 H         1 <0>         0.0653
     35 H11        -0.6656   -0.5423    0.5208 H         1 <0>         0.0682
     36 H12         2.7627   -2.5970   -1.9289 H         1 <0>         0.4117
     37 H13         4.5895   -4.9733   -5.3424 H         1 <0>         0.0889
     38 H14         6.0045   -2.2855   -5.0420 H         1 <0>         0.1211
     39 H15         6.5134   -3.8163   -4.2897 H         1 <0>         0.0527
     40 H16         7.7926   -3.3777   -6.3682 H         1 <0>         0.0648
     41 H17         6.7798   -4.8318   -6.5361 H         1 <0>         0.0545
     42 H18         6.0589   -2.0364   -7.5274 H         1 <0>         0.0702
     43 H19         6.6066   -3.3896   -8.5458 H         1 <0>         0.0591
     44 H20         4.1350   -3.1934   -8.5802 H         1 <0>         0.0647
     45 H21         4.6439   -4.7242   -7.8279 H         1 <0>         0.0538
     46 H22         2.8558   -3.6320   -6.5017 H         1 <0>         0.0528
     47 H23         3.8686   -2.1779   -6.3338 H         1 <0>         0.1249
     48 H24         3.3972   -5.5431   -3.6574 H         1 <0>         0.1111
     49 H25         1.5961   -3.3296   -2.5740 H         1 <0>         0.0642
     50 H26         1.2844   -4.3005   -4.0329 H         1 <0>         0.0806
     51 H27         0.0409   -5.1979   -2.0843 H         1 <0>         0.0740
     52 H28         1.2599   -6.3623   -2.6556 H         1 <0>         0.0717
     53 H29         1.6074   -4.4206   -0.3263 H         1 <0>         0.0622
     54 H30         1.3038   -6.1687   -0.1839 H         1 <0>         0.0735
     55 H31         3.7201   -5.6632    0.0493 H         1 <0>         0.0737
     56 H32         3.4085   -6.6341   -1.4097 H         1 <0>         0.0715
     57 H33         4.9636   -4.7658   -1.8994 H         1 <0>         0.0798
     58 H34         3.7447   -3.6014   -1.3280 H         1 <0>         0.0642
@<TRIPOS>BOND
     1    1    6 1
     2    1    2 1
     3    1   25 1
     4    1   26 1
     5    2    3 1
     6    2   27 1
     7    2   28 1
     8    3    4 1
     9    3   29 1
    10    3   30 1
    11    4    5 1
    12    4    7 1
    13    4   31 1
    14    5    6 1
    15    5   32 1
    16    5   33 1
    17    6   34 1
    18    6   35 1
    19    7    8 2
    20    7    9 am
    21    9   10 1
    22    9   36 1
    23   10   11 2
    24   10   12 1
    25   12   13 1
    26   12   19 1
    27   13   18 1
    28   13   14 1
    29   13   37 1
    30   14   15 1
    31   14   38 1
    32   14   39 1
    33   15   16 1
    34   15   40 1
    35   15   41 1
    36   16   17 1
    37   16   42 1
    38   16   43 1
    39   17   18 1
    40   17   44 1
    41   17   45 1
    42   18   46 1
    43   18   47 1
    44   19   24 1
    45   19   20 1
    46   19   48 1
    47   20   21 1
    48   20   49 1
    49   20   50 1
    50   21   22 1
    51   21   51 1
    52   21   52 1
    53   22   23 1
    54   22   53 1
    55   22   54 1
    56   23   24 1
    57   23   55 1
    58   23   56 1
    59   24   57 1
    60   24   58 1
@<TRIPOS>MOLECULE
ZINC00343343
   16    17     0     0     0
SMALL
USER_CHARGES
3,8-dibromo[1,6]naphthyridine
@<TRIPOS>ATOM
      1 C1          3.6744   -0.5054   -0.0364 C.ar      1 <0>         0.0065
      2 C2          2.4206    0.1306   -0.0205 C.ar      1 <0>        -0.1633
      3 C3          2.2923    1.5279   -0.0117 C.ar      1 <0>         0.1854
      4 N1          1.0988    2.0749    0.0027 N.ar      1 <0>        -0.4764
      5 C4         -0.0164    1.3581    0.0095 C.ar      1 <0>         0.1392
      6 C5          0.0021   -0.0041    0.0020 C.ar      1 <0>        -0.1280
      7 C6          1.2458   -0.6648   -0.0135 C.ar      1 <0>         0.1813
      8 N2          1.3395   -1.9949   -0.0220 N.ar      1 <0>        -0.4551
      9 C7          2.5074   -2.5930   -0.0373 C.ar      1 <0>         0.1893
     10 C8          3.7009   -1.8725   -0.0445 C.ar      1 <0>        -0.1562
     11 Br1         5.3565   -2.7860   -0.0659 Br        1 <0>        -0.0143
     12 Br2        -1.6120   -0.9893    0.0129 Br        1 <0>        -0.0015
     13 H1          4.5892    0.0686   -0.0418 H         1 <0>         0.1620
     14 H2          3.1736    2.1522   -0.0172 H         1 <0>         0.1799
     15 H3         -0.9678    1.8692    0.0168 H         1 <0>         0.1734
     16 H4          2.5450   -3.6723   -0.0442 H         1 <0>         0.1779
@<TRIPOS>BOND
     1    1   10 ar
     2    1    2 ar
     3    1   13 1
     4    2    7 ar
     5    2    3 ar
     6    3    4 ar
     7    3   14 1
     8    4    5 ar
     9    5    6 ar
    10    5   15 1
    11    6    7 ar
    12    6   12 1
    13    7    8 ar
    14    8    9 ar
    15    9   10 ar
    16    9   16 1
    17   10   11 1
@<TRIPOS>MOLECULE
ZINC15444648
   16    16     0     0     0
SMALL
USER_CHARGES
1,3-dibromo-5-(difluoromethoxy)benzene
@<TRIPOS>ATOM
      1 C1          2.3787    1.4171   -0.0130 C.ar      1 <0>        -0.1508
      2 C2          2.3997    0.0301   -0.0211 C.ar      1 <0>         0.1210
      3 C3          1.2079   -0.6798   -0.0136 C.ar      1 <0>        -0.0930
      4 C4          0.0021   -0.0041    0.0020 C.ar      1 <0>        -0.0553
      5 C5         -0.0167    1.3792    0.0096 C.ar      1 <0>        -0.0865
      6 C6          1.1707    2.0890    0.0021 C.ar      1 <0>        -0.0508
      7 Br1         1.1413    3.9798    0.0119 Br        1 <0>        -0.0210
      8 Br2        -1.6229   -0.9711    0.0123 Br        1 <0>        -0.0173
      9 O1          3.5862   -0.6324   -0.0369 O.3       1 <0>        -0.3119
     10 C7          4.7733    0.1631   -0.0439 C.3       1 <0>         0.4101
     11 F1          4.7823    0.9774   -1.1814 F         1 <0>        -0.1945
     12 F2          4.8050    0.9636    1.1030 F         1 <0>        -0.1945
     13 H1          3.3055    1.9716   -0.0185 H         1 <0>         0.1512
     14 H2          1.2222   -1.7597   -0.0195 H         1 <0>         0.1536
     15 H3         -0.9596    1.9057    0.0169 H         1 <0>         0.1500
     16 H4          5.6471   -0.4884   -0.0565 H         1 <0>         0.1898
@<TRIPOS>BOND
     1    1    6 ar
     2    1    2 ar
     3    1   13 1
     4    2    3 ar
     5    2    9 1
     6    3    4 ar
     7    3   14 1
     8    4    5 ar
     9    4    8 1
    10    5    6 ar
    11    5   15 1
    12    6    7 1
    13    9   10 1
    14   10   11 1
    15   10   12 1
    16   10   16 1
@<TRIPOS>MOLECULE
ZINC39511652
   31    32     0     0     0
SMALL
USER_CHARGES

@<TRIPOS>ATOM
      1 C1         -0.0225    1.8097    0.0120 C.3       1 <0>        -0.1200
      2 S1          0.0021   -0.0041    0.0020 S.3       1 <0>        -0.2571
      3 C2         -1.7518   -0.4668    0.0163 C.3       1 <0>        -0.0520
      4 H1         -2.2835    0.0149   -0.8043 H         1 <0>         0.0958
      5 C3         -2.4025   -0.1104    1.3762 C.3       1 <0>        -0.1106
      6 C4         -3.6122   -1.0633    1.4786 C.3       1 <0>        -0.1166
      7 C5         -3.2986   -2.2651    0.5746 C.3       1 <0>         0.0991
      8 C6         -1.9141   -2.0063   -0.0531 C.3       1 <0>        -0.0861
      9 C7         -3.2595   -3.5459    1.4054 C.3       1 <0>        -0.0330
     10 H2         -4.2262   -3.6977    1.8857 H         1 <0>         0.1083
     11 C8         -2.9512   -4.7346    0.4900 C.3       1 <0>        -0.1276
     12 C9         -4.0044   -4.7998   -0.6196 C.3       1 <0>        -0.1631
     13 C10        -4.0025   -3.4820   -1.3976 C.3       1 <0>         0.0300
     14 N1         -4.3062   -2.3727   -0.4837 N.3       1 <0>        -0.5002
     15 I1         -6.1865   -2.5679    0.3093 I         1 <0>         0.0924
     16 Cl1        -1.9770   -3.4071    2.6651 Cl        1 <0>        -0.1539
     17 H3          1.0001    2.1870    0.0043 H         1 <0>         0.1016
     18 H4         -0.5497    2.1708   -0.8711 H         1 <0>         0.0758
     19 H5         -0.5327    2.1613    0.9088 H         1 <0>         0.0771
     20 H6         -1.7037   -0.2920    2.1927 H         1 <0>         0.0845
     21 H7         -2.7336    0.9281    1.3801 H         1 <0>         0.0714
     22 H8         -3.7409   -1.3944    2.5091 H         1 <0>         0.0825
     23 H9         -4.5147   -0.5601    1.1317 H         1 <0>         0.0873
     24 H10        -1.8913   -2.3462   -1.0885 H         1 <0>         0.0849
     25 H11        -1.1348   -2.4988    0.5285 H         1 <0>         0.0971
     26 H12        -1.9632   -4.6072    0.0476 H         1 <0>         0.0821
     27 H13        -2.9756   -5.6572    1.0701 H         1 <0>         0.0843
     28 H14        -3.7698   -5.6218   -1.2959 H         1 <0>         0.0899
     29 H15        -4.9881   -4.9605   -0.1785 H         1 <0>         0.0797
     30 H16        -3.0210   -3.3257   -1.8450 H         1 <0>         0.1005
     31 H17        -4.7573   -3.5227   -2.1829 H         1 <0>         0.0961
@<TRIPOS>BOND
     1    1    2 1
     2    1   17 1
     3    1   18 1
     4    1   19 1
     5    2    3 1
     6    3    4 1
     7    3    8 1
     8    3    5 1
     9    5    6 1
    10    5   20 1
    11    5   21 1
    12    6    7 1
    13    6   22 1
    14    6   23 1
    15    7   14 1
    16    7    8 1
    17    7    9 1
    18    8   24 1
    19    8   25 1
    20    9   10 1
    21    9   11 1
    22    9   16 1
    23   11   12 1
    24   11   26 1
    25   11   27 1
    26   12   13 1
    27   12   28 1
    28   12   29 1
    29   13   14 1
    30   13   30 1
    31   13   31 1
    32   14   15 1
@<TRIPOS>MOLECULE
ZINC40283690
   25    26     0     0     0
SMALL
USER_CHARGES

@<TRIPOS>ATOM
      1 C1         -0.0184    1.5028    0.0103 C.3       1 <0>        -0.0922
      2 C2          0.0021   -0.0041    0.0020 C.2       1 <0>        -0.1438
      3 C3          0.0089   -0.8403   -1.1379 C.2       1 <0>        -0.2124
      4 C4          0.0287   -2.1088   -0.6906 C.2       1 <0>        -0.0196
      5 O1          0.0343   -2.0852    0.6522 O.3       1 <0>        -0.1616
      6 C5          0.0233   -0.8114    1.0777 C.2       1 <0>        -0.0300
      7 C6          0.0300   -0.3627    2.5164 C.3       1 <0>         0.0782
      8 H1         -0.2503    0.6892    2.5702 H         1 <0>         0.1424
      9 C7          1.4104   -0.5448    3.0929 C.ar      1 <0>        -0.0777
     10 C8          1.9428   -1.8142    3.2223 C.ar      1 <0>        -0.0731
     11 C9          3.2086   -1.9838    3.7507 C.ar      1 <0>        -0.1209
     12 C10         3.9449   -0.8820    4.1506 C.ar      1 <0>         0.0799
     13 C11         3.4112    0.3910    4.0204 C.ar      1 <0>         0.0711
     14 C12         2.1452    0.5577    3.4864 C.ar      1 <0>        -0.1051
     15 F1          4.1278    1.4678    4.4105 F         1 <0>        -0.1232
     16 F2          5.1821   -1.0470    4.6677 F         1 <0>        -0.1234
     17 Br1        -1.2563   -1.4372    3.5440 Br        1 <0>        -0.1111
     18 H2          1.0042    1.8801    0.0026 H         1 <0>         0.0729
     19 H3         -0.5455    1.8639   -0.8728 H         1 <0>         0.0734
     20 H4         -0.5286    1.8543    0.9071 H         1 <0>         0.0656
     21 H5         -0.0007   -0.5219   -2.1699 H         1 <0>         0.1526
     22 H6          0.0382   -2.9957   -1.3068 H         1 <0>         0.2080
     23 H7          1.3688   -2.6743    2.9104 H         1 <0>         0.1462
     24 H8          3.6231   -2.9759    3.8520 H         1 <0>         0.1527
     25 H9          1.7298    1.5491    3.3810 H         1 <0>         0.1513
@<TRIPOS>BOND
     1    1    2 1
     2    1   18 1
     3    1   19 1
     4    1   20 1
     5    2    6 2
     6    2    3 1
     7    3    4 2
     8    3   21 1
     9    4    5 1
    10    4   22 1
    11    5    6 1
    12    6    7 1
    13    7    8 1
    14    7    9 1
    15    7   17 1
    16    9   14 ar
    17    9   10 ar
    18   10   11 ar
    19   10   23 1
    20   11   12 ar
    21   11   24 1
    22   12   13 ar
    23   12   16 1
    24   13   14 ar
    25   13   15 1
    26   14   25 1
@<TRIPOS>MOLECULE
ZINC50973024
   32    33     0     0     0
SMALL
USER_CHARGES

@<TRIPOS>ATOM
      1 C1         -0.0184    1.5028    0.0103 C.3       1 <0>        -0.0698
      2 C2          0.0021   -0.0041    0.0020 C.2       1 <0>        -0.1431
      3 C3         -1.0392   -0.8719    0.0017 C.2       1 <0>        -0.1547
      4 C4         -0.7802   -2.2296   -0.0075 C.2       1 <0>        -0.1322
      5 C5          0.5074   -2.6532   -0.0160 C.2       1 <0>        -0.1049
      6 S1          1.4039   -1.1093   -0.0179 S.3       1 <0>         0.0330
      7 C6          1.0430   -4.0617   -0.0269 C.3       1 <0>        -0.0663
      8 C7         -1.9124   -3.2242   -0.0076 C.3       1 <0>         0.0214
      9 H1         -1.6271   -4.0996    0.5756 H         1 <0>         0.1175
     10 C8         -2.2195   -3.6472   -1.4456 C.3       1 <0>         0.1039
     11 H2         -2.5049   -2.7718   -2.0290 H         1 <0>         0.0683
     12 C9         -3.3693   -4.6580   -1.4459 C.3       1 <0>        -0.1577
     13 C10        -3.6306   -5.1219   -2.8822 C.3       1 <0>        -0.1207
     14 C11        -2.3395   -5.7099   -3.4599 C.3       1 <0>        -0.1577
     15 C12        -1.2295   -4.6585   -3.3818 C.3       1 <0>         0.0624
     16 O1         -1.0588   -4.2476   -2.0238 O.3       1 <0>        -0.3669
     17 Br1        -3.5097   -2.3989    0.7879 Br        1 <0>        -0.1274
     18 H3          1.0042    1.8801    0.0026 H         1 <0>         0.0719
     19 H4         -0.5455    1.8639   -0.8728 H         1 <0>         0.0796
     20 H5         -0.5286    1.8543    0.9071 H         1 <0>         0.0806
     21 H6         -2.0560   -0.5079    0.0090 H         1 <0>         0.1403
     22 H7          1.1674   -4.3952   -1.0571 H         1 <0>         0.0893
     23 H8          2.0064   -4.0880    0.4823 H         1 <0>         0.0693
     24 H9          0.3427   -4.7207    0.4863 H         1 <0>         0.0772
     25 H10        -3.1005   -5.5157   -0.8293 H         1 <0>         0.0748
     26 H11        -4.2676   -4.1879   -1.0458 H         1 <0>         0.0835
     27 H12        -4.4105   -5.8834   -2.8832 H         1 <0>         0.0706
     28 H13        -3.9475   -4.2727   -3.4877 H         1 <0>         0.0641
     29 H14        -2.0499   -6.5888   -2.8840 H         1 <0>         0.0726
     30 H15        -2.5014   -5.9920   -4.5003 H         1 <0>         0.0742
     31 H16        -0.2976   -5.0856   -3.7523 H         1 <0>         0.0967
     32 H17        -1.5018   -3.7964   -3.9907 H         1 <0>         0.0501
@<TRIPOS>BOND
     1    1    2 1
     2    1   18 1
     3    1   19 1
     4    1   20 1
     5    2    6 1
     6    2    3 2
     7    3    4 1
     8    3   21 1
     9    4    5 2
    10    4    8 1
    11    5    6 1
    12    5    7 1
    13    7   22 1
    14    7   23 1
    15    7   24 1
    16    8    9 1
    17    8   10 1
    18    8   17 1
    19   10   11 1
    20   10   16 1
    21   10   12 1
    22   12   13 1
    23   12   25 1
    24   12   26 1
    25   13   14 1
    26   13   27 1
    27   13   28 1
    28   14   15 1
    29   14   29 1
    30   14   30 1
    31   15   16 1
    32   15   31 1
    33   15   32 1
@<TRIPOS>MOLECULE
ZINC00337189
   14    15     0     0     0
SMALL
USER_CHARGES
2,3-dibromo-8-methyl-4,6-dithia-7-azabicyclo[3.3.0]octa-2,7,9-triene
@<TRIPOS>ATOM
      1 C1          3.0922    5.1884    0.0009 C.3       1 <0>        -0.1141
      2 C2          1.5936    5.3462    0.0160 C.2       1 <0>         0.1679
      3 C3          0.7774    4.1842    0.0171 C.2       1 <0>        -0.1621
      4 C4          1.0142    2.7323    0.0070 C.2       1 <0>        -0.0304
      5 C5         -0.0236    1.8867    0.0124 C.2       1 <0>        -0.1671
      6 S1         -1.4365    2.9755    0.0239 S.3       1 <0>         0.2954
      7 C6         -0.5877    4.5147    0.0319 C.2       1 <0>        -0.2379
      8 S2         -0.6050    6.2737    0.0424 S.3       1 <0>         0.3158
      9 N1          1.0853    6.5399    0.0280 N.2       1 <0>        -0.4209
     10 Br1         0.0021   -0.0041    0.0020 Br        1 <0>         0.0795
     11 Br2         2.7821    2.0615   -0.0128 Br        1 <0>         0.0019
     12 H1          3.4438    5.1562   -1.0303 H         1 <0>         0.0925
     13 H2          3.5516    6.0325    0.5152 H         1 <0>         0.0865
     14 H3          3.3652    4.2624    0.5069 H         1 <0>         0.0930
@<TRIPOS>BOND
     1    1    2 1
     2    1   12 1
     3    1   13 1
     4    1   14 1
     5    2    9 2
     6    2    3 1
     7    3    7 2
     8    3    4 1
     9    4    5 2
    10    4   11 1
    11    5    6 1
    12    5   10 1
    13    6    7 1
    14    7    8 1
    15    8    9 1
@<TRIPOS>MOLECULE
ZINC26894526
   16    17     0     0     0
SMALL
USER_CHARGES
7-bromo-2,4-dichloro-quinazoline
@<TRIPOS>ATOM
      1 C1          3.5615    2.6153   -0.0193 C.ar      1 <0>        -0.0894
      2 C2          2.4347    1.8491   -0.0118 C.ar      1 <0>        -0.0592
      3 C3          1.1779    2.4699    0.0041 C.ar      1 <0>        -0.1466
      4 C4          1.0951    3.8861    0.0125 C.ar      1 <0>         0.1884
      5 C5          2.2752    4.6421    0.0049 C.ar      1 <0>        -0.0644
      6 C6          3.4818    4.0067   -0.0106 C.ar      1 <0>        -0.0440
      7 Br1         5.0721    5.0298   -0.0209 Br        1 <0>        -0.0155
      8 N1         -0.1156    4.4593    0.0272 N.ar      1 <0>        -0.4785
      9 C7         -1.1989    3.7180    0.0336 C.ar      1 <0>         0.3859
     10 N2         -1.1633    2.3923    0.0205 N.ar      1 <0>        -0.5031
     11 C8         -0.0215    1.7317    0.0116 C.ar      1 <0>         0.2847
     12 Cl1         0.0021   -0.0041    0.0020 Cl        1 <0>         0.0245
     13 Cl2        -2.7451    4.5071    0.0520 Cl        1 <0>         0.0488
     14 H1          4.5300    2.1376   -0.0323 H         1 <0>         0.1524
     15 H2          2.5093    0.7717   -0.0180 H         1 <0>         0.1548
     16 H3          2.2293    5.7211    0.0115 H         1 <0>         0.1614
@<TRIPOS>BOND
     1    1    6 ar
     2    1    2 ar
     3    1   14 1
     4    2    3 ar
     5    2   15 1
     6    3   11 ar
     7    3    4 ar
     8    4    5 ar
     9    4    8 ar
    10    5    6 ar
    11    5   16 1
    12    6    7 1
    13    8    9 ar
    14    9   10 ar
    15    9   13 1
    16   10   11 ar
    17   11   12 1
@<TRIPOS>MOLECULE
ZINC39524291
   34    35     0     0     0
SMALL
USER_CHARGES

@<TRIPOS>ATOM
      1 C1         -0.0225    1.8097    0.0120 C.3       1 <0>        -0.1295
      2 S1          0.0021   -0.0041    0.0020 S.3       1 <0>        -0.2086
      3 C2          0.8734   -0.4227   -1.5329 C.3       1 <0>         0.0784
      4 H1          0.5559    0.2535   -2.3267 H         1 <0>         0.0781
      5 C3          2.3820   -0.2830   -1.3172 C.3       1 <0>        -0.1040
      6 C4          3.1136   -0.6564   -2.6095 C.3       1 <0>        -0.1298
      7 C5          2.7306   -2.0839   -3.0092 C.3       1 <0>        -0.1034
      8 C6          1.2118   -2.1723   -3.1757 C.3       1 <0>         0.0998
      9 N1          0.5580   -1.8056   -1.9130 N.3       1 <0>        -0.3210
     10 Cl1        -1.1326   -2.0449   -2.0065 Cl        1 <0>        -0.0125
     11 C7          0.8247   -3.6034   -3.5544 C.3       1 <0>        -0.1016
     12 C8         -0.6929   -3.6938   -3.7254 C.3       1 <0>        -0.1943
     13 C9         -1.1395   -2.7355   -4.8314 C.3       1 <0>        -0.1071
     14 C10        -0.7536   -1.3044   -4.4518 C.3       1 <0>        -0.0835
     15 H2         -1.2416   -1.0326   -3.5159 H         1 <0>         0.1339
     16 C11         0.7641   -1.2136   -4.2808 C.3       1 <0>        -0.1437
     17 Br1        -1.3278   -0.0723   -5.8721 Br        1 <0>        -0.1746
     18 H3          1.0001    2.1870    0.0043 H         1 <0>         0.0797
     19 H4         -0.5497    2.1708   -0.8711 H         1 <0>         0.0769
     20 H5         -0.5327    2.1613    0.9088 H         1 <0>         0.1091
     21 H6          2.6176    0.7472   -1.0502 H         1 <0>         0.0815
     22 H7          2.6981   -0.9492   -0.5145 H         1 <0>         0.0929
     23 H8          2.8265    0.0335   -3.4030 H         1 <0>         0.0674
     24 H9          4.1901   -0.5997   -2.4481 H         1 <0>         0.0817
     25 H10         3.2155   -2.3405   -3.9511 H         1 <0>         0.0856
     26 H11         3.0526   -2.7779   -2.2327 H         1 <0>         0.0858
     27 H12         1.3126   -3.8761   -4.4902 H         1 <0>         0.0777
     28 H13         1.1428   -4.2863   -2.7665 H         1 <0>         0.0811
     29 H14        -0.9681   -4.7134   -3.9950 H         1 <0>         0.0647
     30 H15        -1.1809   -3.4211   -2.7896 H         1 <0>         0.1265
     31 H16        -0.6510   -3.0076   -5.7671 H         1 <0>         0.0711
     32 H17        -2.2207   -2.8002   -4.9536 H         1 <0>         0.0715
     33 H18         1.0388   -0.1941   -4.0105 H         1 <0>         0.0798
     34 H19         1.2520   -1.4852   -5.2169 H         1 <0>         0.0906
@<TRIPOS>BOND
     1    1    2 1
     2    1   18 1
     3    1   19 1
     4    1   20 1
     5    2    3 1
     6    3    4 1
     7    3    9 1
     8    3    5 1
     9    5    6 1
    10    5   21 1
    11    5   22 1
    12    6    7 1
    13    6   23 1
    14    6   24 1
    15    7    8 1
    16    7   25 1
    17    7   26 1
    18    8   16 1
    19    8    9 1
    20    8   11 1
    21    9   10 1
    22   11   12 1
    23   11   27 1
    24   11   28 1
    25   12   13 1
    26   12   29 1
    27   12   30 1
    28   13   14 1
    29   13   31 1
    30   13   32 1
    31   14   15 1
    32   14   16 1
    33   14   17 1
    34   16   33 1
    35   16   34 1
@<TRIPOS>MOLECULE
ZINC40290298
   19    20     0     0     0
SMALL
USER_CHARGES

@<TRIPOS>ATOM
      1 C1         -0.0163    1.3510    0.0095 C.2       1 <0>        -0.1340
      2 C2          1.1834    2.0381    0.0017 C.2       1 <0>        -0.1104
      3 C3          2.3432    1.3350   -0.0131 C.2       1 <0>        -0.1716
      4 S1          1.7534   -0.3501   -0.0166 S.3       1 <0>         0.1234
      5 C4          0.0021   -0.0041    0.0020 C.2       1 <0>        -0.1423
      6 C5         -1.1557   -0.9688    0.0086 C.3       1 <0>         0.1110
      7 H1         -2.0892   -0.4153    0.1106 H         1 <0>         0.1366
      8 C6         -1.1703   -1.7447   -1.2832 C.2       1 <0>        -0.1931
      9 C7         -2.1664   -1.6939   -2.2853 C.2       1 <0>        -0.1956
     10 C8         -1.7830   -2.5392   -3.2590 C.2       1 <0>        -0.0321
     11 O1         -0.6142   -3.0960   -2.9017 O.3       1 <0>        -0.1661
     12 C9         -0.2354   -2.6141   -1.7067 C.2       1 <0>        -0.0030
     13 Br1        -0.9632   -2.2132    1.5184 Br        1 <0>        -0.1209
     14 Br2         4.1230    1.9737   -0.0272 Br        1 <0>         0.0445
     15 H2         -0.9542    1.8862    0.0258 H         1 <0>         0.1451
     16 H3          1.1969    3.1180    0.0070 H         1 <0>         0.1460
     17 H4         -3.0633   -1.0924   -2.2714 H         1 <0>         0.1540
     18 H5         -2.3236   -2.7368   -4.1728 H         1 <0>         0.2079
     19 H6          0.6658   -2.8812   -1.1749 H         1 <0>         0.2006
@<TRIPOS>BOND
     1    1    5 2
     2    1    2 1
     3    1   15 1
     4    2    3 2
     5    2   16 1
     6    3    4 1
     7    3   14 1
     8    4    5 1
     9    5    6 1
    10    6    7 1
    11    6    8 1
    12    6   13 1
    13    8   12 2
    14    8    9 1
    15    9   10 2
    16    9   17 1
    17   10   11 1
    18   10   18 1
    19   11   12 1
    20   12   19 1
@<TRIPOS>MOLECULE
ZINC49490823
   31    34     0     0     0
SMALL
USER_CHARGES

@<TRIPOS>ATOM
      1 C1         -0.2258    0.9883   -0.3999 C.ar      1 <0>        -0.1078
      2 C2          0.9107    1.7433   -0.1771 C.ar      1 <0>        -0.1197
      3 C3          2.1464    1.1289   -0.1224 C.ar      1 <0>        -0.0937
      4 C4          2.2513   -0.2419   -0.2900 C.ar      1 <0>        -0.0923
      5 C5          1.1151   -0.9967   -0.5127 C.ar      1 <0>        -0.0788
      6 C6         -0.1232   -0.3788   -0.5672 C.ar      1 <0>        -0.1083
      7 C7          1.4910   -2.4552   -0.6628 C.3       1 <0>        -0.0817
      8 C8          3.0087   -2.4544   -0.9437 C.3       1 <0>        -0.1091
      9 C9          3.4685   -1.1415   -0.2750 C.3       1 <0>        -0.0266
     10 H1          3.7865   -1.3305    0.7503 H         1 <0>         0.1198
     11 S1          4.8184   -0.3901   -1.2257 S.3       1 <0>        -0.0229
     12 C10         6.2000   -1.4349   -0.9030 C.ar      1 <0>         0.2212
     13 C11         7.4069   -1.2377   -1.5531 C.ar      1 <0>        -0.2350
     14 C12         8.5169   -2.0710   -1.2991 C.ar      1 <0>         0.1805
     15 C13         9.6804   -1.7622   -2.0255 C.2       1 <0>        -0.1574
     16 C14         9.6837   -0.7316   -2.8922 C.2       1 <0>        -0.1045
     17 S2          8.0215   -0.0942   -2.7600 S.3       1 <0>         0.1066
     18 N1          8.3130   -3.0571   -0.3898 N.ar      1 <0>        -0.5009
     19 C15         7.1572   -3.2102    0.2023 C.ar      1 <0>         0.3139
     20 N2          6.1124   -2.4329   -0.0221 N.ar      1 <0>        -0.5130
     21 H2         -1.1934    1.4665   -0.4385 H         1 <0>         0.1276
     22 H3          0.8323    2.8124   -0.0458 H         1 <0>         0.1282
     23 H4          3.0338    1.7194    0.0513 H         1 <0>         0.1249
     24 H5         -1.0116   -0.9679   -0.7408 H         1 <0>         0.1246
     25 H6          1.2771   -2.9976    0.2581 H         1 <0>         0.0865
     26 H7          0.9519   -2.9006   -1.4990 H         1 <0>         0.0824
     27 H8          3.4893   -3.3151   -0.4787 H         1 <0>         0.0899
     28 H9          3.2043   -2.4323   -2.0158 H         1 <0>         0.0825
     29 H10        10.5740   -2.3530   -1.8877 H         1 <0>         0.1544
     30 H11        10.4928   -0.3776   -3.5139 H         1 <0>         0.2064
     31 H12         7.0523   -4.0128    0.9173 H         1 <0>         0.2024
@<TRIPOS>BOND
     1    1    6 ar
     2    1    2 ar
     3    1   21 1
     4    2    3 ar
     5    2   22 1
     6    3    4 ar
     7    3   23 1
     8    4    9 1
     9    4    5 ar
    10    5    6 ar
    11    5    7 1
    12    6   24 1
    13    7    8 1
    14    7   25 1
    15    7   26 1
    16    8    9 1
    17    8   27 1
    18    8   28 1
    19    9   10 1
    20    9   11 1
    21   11   12 1
    22   12   20 ar
    23   12   13 ar
    24   13   17 1
    25   13   14 ar
    26   14   15 1
    27   14   18 ar
    28   15   16 2
    29   15   29 1
    30   16   17 1
    31   16   30 1
    32   18   19 ar
    33   19   20 ar
    34   19   31 1
@<TRIPOS>MOLECULE
ZINC02406200
   45    48     0     0     0
SMALL
USER_CHARGES
5-(1-ethylbenzoimidazol-2-yl)-N-(o-tolyl)thiophene-2-carboxamide
@<TRIPOS>ATOM
      1 C1          0.4596   -2.9587   -2.1272 C.3       1 <0>        -0.1733
      2 C2          0.6364   -3.0404   -0.6097 C.3       1 <0>         0.1042
      3 N1          2.0260   -2.7320   -0.2627 N.pl3     1 <0>        -0.4817
      4 C3          3.0662   -3.6345   -0.1605 C.ar      1 <0>         0.0601
      5 C4          3.1690   -5.0086   -0.3280 C.ar      1 <0>        -0.1128
      6 C5          4.3853   -5.6309   -0.1414 C.ar      1 <0>        -0.0920
      7 C6          5.5065   -4.8930    0.2122 C.ar      1 <0>        -0.1259
      8 C7          5.4258   -3.5404    0.3817 C.ar      1 <0>        -0.0581
      9 C8          4.2022   -2.8861    0.1982 C.ar      1 <0>         0.0499
     10 N2          3.8196   -1.5963    0.2913 N.2       1 <0>        -0.4574
     11 C9          2.5399   -1.4924    0.0185 C.2       1 <0>         0.3457
     12 C10         1.7718   -0.2366    0.0202 C.2       1 <0>        -0.0755
     13 C11         2.2379    1.0703    0.0167 C.2       1 <0>        -0.1107
     14 C12         1.3304    2.0909    0.0198 C.2       1 <0>        -0.0640
     15 C13        -0.0222    1.7805    0.0263 C.2       1 <0>        -0.2219
     16 S1          0.0017   -0.0046    0.0281 S.3       1 <0>         0.1233
     17 C14        -1.1757    2.6866    0.0255 C.2       1 <0>         0.6045
     18 O1         -1.0031    3.8913    0.0238 O.2       1 <0>        -0.4953
     19 N3         -2.4267    2.1851    0.0266 N.am      1 <0>        -0.6619
     20 C15        -3.5240    3.0438    0.1423 C.ar      1 <0>         0.1442
     21 C16        -3.3773    4.2824    0.7540 C.ar      1 <0>        -0.1259
     22 C17        -4.4619    5.1302    0.8620 C.ar      1 <0>        -0.1028
     23 C18        -5.6958    4.7429    0.3717 C.ar      1 <0>        -0.1308
     24 C19        -5.8465    3.5087   -0.2330 C.ar      1 <0>        -0.0995
     25 C20        -4.7644    2.6580   -0.3489 C.ar      1 <0>        -0.1152
     26 C21        -4.9298    1.3125   -1.0073 C.3       1 <0>        -0.1176
     27 H1          1.1225   -3.6771   -2.6094 H         1 <0>         0.0682
     28 H2         -0.5742   -3.1881   -2.3854 H         1 <0>         0.0841
     29 H3          0.7046   -1.9527   -2.4680 H         1 <0>         0.0654
     30 H4          0.3915   -4.0463   -0.2689 H         1 <0>         0.1010
     31 H5         -0.0265   -2.3219   -0.1275 H         1 <0>         0.0874
     32 H6          2.3000   -5.5879   -0.6030 H         1 <0>         0.1243
     33 H7          4.4662   -6.7000   -0.2715 H         1 <0>         0.1336
     34 H8          6.4527   -5.3939    0.3547 H         1 <0>         0.1333
     35 H9          6.3048   -2.9764    0.6569 H         1 <0>         0.1331
     36 H10         3.2981    1.2765    0.0112 H         1 <0>         0.1593
     37 H11         1.6590    3.1197    0.0168 H         1 <0>         0.1578
     38 H12        -2.5657    1.2284   -0.0529 H         1 <0>         0.4092
     39 H13        -2.4151    4.5836    1.1411 H         1 <0>         0.1459
     40 H14        -4.3476    6.0948    1.3341 H         1 <0>         0.1273
     41 H15        -6.5436    5.4059    0.4616 H         1 <0>         0.1248
     42 H16        -6.8113    3.2093   -0.6149 H         1 <0>         0.1274
     43 H17        -5.2005    0.5710   -0.2556 H         1 <0>         0.0726
     44 H18        -5.7160    1.3705   -1.7600 H         1 <0>         0.0751
     45 H19        -3.9925    1.0228   -1.4823 H         1 <0>         0.0608
@<TRIPOS>BOND
     1    1    2 1
     2    1   27 1
     3    1   28 1
     4    1   29 1
     5    2    3 1
     6    2   30 1
     7    2   31 1
     8    3   11 1
     9    3    4 1
    10    4    9 ar
    11    4    5 ar
    12    5    6 ar
    13    5   32 1
    14    6    7 ar
    15    6   33 1
    16    7    8 ar
    17    7   34 1
    18    8    9 ar
    19    8   35 1
    20    9   10 1
    21   10   11 2
    22   11   12 1
    23   12   16 1
    24   12   13 2
    25   13   14 1
    26   13   36 1
    27   14   15 2
    28   14   37 1
    29   15   16 1
    30   15   17 1
    31   17   18 2
    32   17   19 am
    33   19   20 1
    34   19   38 1
    35   20   25 ar
    36   20   21 ar
    37   21   22 ar
    38   21   39 1
    39   22   23 ar
    40   22   40 1
    41   23   24 ar
    42   23   41 1
    43   24   25 ar
    44   24   42 1
    45   25   26 1
    46   26   43 1
    47   26   44 1
    48   26   45 1
@<TRIPOS>MOLECULE
ZINC01110080
   44    46     0     0     0
SMALL
USER_CHARGES
N-(2-methylbenzothiazol-5-yl)-4-tert-butyl-benzenesulfonamide
@<TRIPOS>ATOM
      1 C1          8.3193    0.4167    2.1996 C.3       1 <0>        -0.0705
      2 C2          6.8617    0.7965    2.2472 C.2       1 <0>         0.1452
      3 N1          6.0618    1.0598    1.2522 N.2       1 <0>        -0.5104
      4 C3          4.7659    1.3904    1.4321 C.ar      1 <0>         0.0882
      5 C4          3.7854    1.6997    0.4634 C.ar      1 <0>        -0.0534
      6 C5          2.5013    2.0164    0.8447 C.ar      1 <0>         0.1357
      7 C6          2.1312    2.0471    2.1883 C.ar      1 <0>        -0.0830
      8 C7          3.0683    1.7437    3.1562 C.ar      1 <0>        -0.0536
      9 C8          4.3520    1.4267    2.7828 C.ar      1 <0>        -0.1480
     10 S1          5.8438    0.9890    3.6404 S.3       1 <0>         0.0329
     11 N2          1.5500    2.3192   -0.1357 N.pl3     1 <0>        -1.0632
     12 S2          0.3799    1.2134   -0.5236 S.o2      1 <0>         2.6894
     13 O1         -0.4105    1.8009   -1.5480 O.2       1 <0>        -0.9496
     14 O2         -0.1762    0.7630    0.7040 O.2       1 <0>        -0.9451
     15 C9          1.1924   -0.1727   -1.2469 C.ar      1 <0>        -0.6825
     16 C10         1.3978   -0.2179   -2.6132 C.ar      1 <0>        -0.0147
     17 C11         2.0392   -1.3034   -3.1801 C.ar      1 <0>        -0.1428
     18 C12         2.4666   -2.3480   -2.3820 C.ar      1 <0>        -0.0081
     19 C13         2.2569   -2.3049   -1.0163 C.ar      1 <0>        -0.1358
     20 C14         1.6194   -1.2175   -0.4488 C.ar      1 <0>        -0.0121
     21 C15         3.1615   -3.5335   -3.0006 C.3       1 <0>        -0.0389
     22 C16         2.3598   -4.8037   -2.7095 C.3       1 <0>        -0.1408
     23 C17         3.2653   -3.3314   -4.5137 C.3       1 <0>        -0.1476
     24 C18         4.5650   -3.6689   -2.4067 C.3       1 <0>        -0.1396
     25 H1          8.6888    0.2662    3.2140 H         1 <0>         0.0913
     26 H2          8.4362   -0.5050    1.6298 H         1 <0>         0.0980
     27 H3          8.8871    1.2145    1.7207 H         1 <0>         0.0984
     28 H4          4.0455    1.6880   -0.5848 H         1 <0>         0.1397
     29 H5          1.1201    2.3022    2.4695 H         1 <0>         0.1526
     30 H6          2.7948    1.7595    4.2009 H         1 <0>         0.1443
     31 H7          1.5758    3.1769   -0.5881 H         1 <0>         0.4284
     32 H8          1.0603    0.5963   -3.2373 H         1 <0>         0.1405
     33 H9          2.2033   -1.3368   -4.2471 H         1 <0>         0.1383
     34 H10         2.5908   -3.1210   -0.3927 H         1 <0>         0.1311
     35 H11         1.4553   -1.1840    0.6181 H         1 <0>         0.1380
     36 H12         1.3599   -4.7071   -3.1326 H         1 <0>         0.0588
     37 H13         2.8624   -5.6611   -3.1570 H         1 <0>         0.0641
     38 H14         2.2859   -4.9476   -1.6316 H         1 <0>         0.0592
     39 H15         3.8365   -2.4265   -4.7210 H         1 <0>         0.0609
     40 H16         3.7679   -4.1888   -4.9611 H         1 <0>         0.0632
     41 H17         2.2654   -3.2349   -4.9368 H         1 <0>         0.0613
     42 H18         4.4911   -3.8129   -1.3288 H         1 <0>         0.0583
     43 H19         5.0677   -4.5264   -2.8542 H         1 <0>         0.0638
     44 H20         5.1362   -2.7640   -2.6141 H         1 <0>         0.0583
@<TRIPOS>BOND
     1    1    2 1
     2    1   25 1
     3    1   26 1
     4    1   27 1
     5    2   10 1
     6    2    3 2
     7    3    4 1
     8    4    9 ar
     9    4    5 ar
    10    5    6 ar
    11    5   28 1
    12    6    7 ar
    13    6   11 1
    14    7    8 ar
    15    7   29 1
    16    8    9 ar
    17    8   30 1
    18    9   10 1
    19   11   12 1
    20   11   31 1
    21   12   13 2
    22   12   14 2
    23   12   15 1
    24   15   20 ar
    25   15   16 ar
    26   16   17 ar
    27   16   32 1
    28   17   18 ar
    29   17   33 1
    30   18   19 ar
    31   18   21 1
    32   19   20 ar
    33   19   34 1
    34   20   35 1
    35   21   22 1
    36   21   23 1
    37   21   24 1
    38   22   36 1
    39   22   37 1
    40   22   38 1
    41   23   39 1
    42   23   40 1
    43   23   41 1
    44   24   42 1
    45   24   43 1
    46   24   44 1
@<TRIPOS>MOLECULE
ZINC20526313
   32    33     0     0     0
SMALL
USER_CHARGES
3-iodo-N-[(1S)-1-(2-nitrophenyl)ethyl]aniline
@<TRIPOS>ATOM
      1 C1         -1.5409    2.0377   -1.4492 C.3       1 <0>        -0.1561
      2 C2         -1.2896    1.6810    0.0173 C.3       1 <0>         0.1762
      3 H1         -1.2596    2.5844    0.6441 H         1 <0>         0.1242
      4 C3         -2.3775    0.7584    0.5034 C.ar      1 <0>        -0.0204
      5 C4         -2.1543   -0.6049    0.5585 C.ar      1 <0>        -0.1191
      6 C5         -3.1521   -1.4511    1.0043 C.ar      1 <0>        -0.0575
      7 C6         -4.3731   -0.9341    1.3960 C.ar      1 <0>        -0.1193
      8 C7         -4.5961    0.4288    1.3413 C.ar      1 <0>        -0.0480
      9 C8         -3.5965    1.2756    0.8995 C.ar      1 <0>        -0.0411
     10 N1         -3.8334    2.7358    0.8462 N.pl3     1 <0>         0.0295
     11 O1         -4.9076    3.1916    1.1953 O.2       1 <0>        -0.1552
     12 O2         -2.9541    3.4814    0.4533 O.3       1 <0>        -0.1586
     13 N2          0.0086    1.0136    0.1420 N.pl3     1 <0>        -0.7560
     14 C9          1.1702    1.7712    0.3078 C.ar      1 <0>         0.2266
     15 C10         1.0963    3.1578    0.3548 C.ar      1 <0>        -0.1825
     16 C11         2.2458    3.9038    0.5246 C.ar      1 <0>        -0.0645
     17 C12         3.4714    3.2729    0.6365 C.ar      1 <0>        -0.1456
     18 C13         3.5495    1.8929    0.5845 C.ar      1 <0>        -0.0494
     19 C14         2.4023    1.1403    0.4205 C.ar      1 <0>        -0.1644
     20 I1          5.4091    0.9428    0.7538 I         1 <0>        -0.0467
     21 H2         -0.7468    2.7111   -1.8040 H         1 <0>         0.0759
     22 H3         -2.5156    2.5388   -1.5428 H         1 <0>         0.0673
     23 H4         -1.5409    1.1196   -2.0550 H         1 <0>         0.0592
     24 H5         -1.2004   -1.0087    0.2529 H         1 <0>         0.1443
     25 H6         -2.9778   -2.5161    1.0470 H         1 <0>         0.1469
     26 H7         -5.1527   -1.5953    1.7443 H         1 <0>         0.1507
     27 H8         -5.5500    0.8326    1.6469 H         1 <0>         0.1572
     28 H9          0.0685   -0.0841    0.1050 H         1 <0>         0.4126
     29 H10         0.1401    3.6515    0.2631 H         1 <0>         0.1321
     30 H11         2.1883    4.9815    0.5657 H         1 <0>         0.1310
     31 H12         4.3695    3.8590    0.7644 H         1 <0>         0.1255
     32 H13         2.4637    0.0628    0.3795 H         1 <0>         0.1250
@<TRIPOS>BOND
     1    1    2 1
     2    1   21 1
     3    1   22 1
     4    1   23 1
     5    2    3 1
     6    2    4 1
     7    2   13 1
     8    4    9 ar
     9    4    5 ar
    10    5    6 ar
    11    5   24 1
    12    6    7 ar
    13    6   25 1
    14    7    8 ar
    15    7   26 1
    16    8    9 ar
    17    8   27 1
    18    9   10 1
    19   10   11 2
    20   10   12 1
    21   13   14 1
    22   13   28 1
    23   14   19 ar
    24   14   15 ar
    25   15   16 ar
    26   15   29 1
    27   16   17 ar
    28   16   30 1
    29   17   18 ar
    30   17   31 1
    31   18   19 ar
    32   18   20 1
    33   19   32 1
@<TRIPOS>MOLECULE
ZINC36613576
   38    40     0     0     0
SMALL
USER_CHARGES

@<TRIPOS>ATOM
      1 C1         -0.0184    1.5028    0.0103 C.3       1 <0>        -0.1219
      2 C2          0.0021   -0.0041    0.0020 C.ar      1 <0>        -0.0583
      3 C3          0.0057   -0.6865   -1.2012 C.ar      1 <0>        -0.1300
      4 C4          0.0249   -2.0663   -1.2149 C.ar      1 <0>        -0.0597
      5 C5          0.0405   -2.7723   -0.0132 C.ar      1 <0>        -0.0772
      6 C6          0.0368   -2.0795    1.1961 C.ar      1 <0>        -0.0789
      7 C7          0.0229   -0.6994    1.1976 C.ar      1 <0>        -0.1265
      8 C8          0.0607   -4.2553   -0.0214 C.ar      1 <0>         0.2835
      9 C9          0.0706   -4.9713    1.1787 C.ar      1 <0>        -0.2375
     10 C10         0.0894   -6.3533    1.1214 C.ar      1 <0>         0.1424
     11 N1          0.0973   -6.9524   -0.0590 N.ar      1 <0>        -0.5395
     12 C11         0.0875   -6.2482   -1.1814 C.ar      1 <0>         0.5847
     13 N2          0.0639   -4.9246   -1.1717 N.ar      1 <0>        -0.5446
     14 N3          0.0968   -6.9136   -2.3951 N.pl3     1 <0>        -0.6899
     15 C12         0.1172   -8.3781   -2.4273 C.3       1 <0>         0.2200
     16 C13         0.1237   -8.8489   -3.8589 C.2       1 <0>        -0.0466
     17 C14         1.2182   -9.0846   -4.6045 C.2       1 <0>        -0.1750
     18 C15         0.7650   -9.5067   -5.8754 C.2       1 <0>        -0.2188
     19 C16        -0.5794   -9.5036   -5.8305 C.2       1 <0>        -0.0228
     20 O1         -0.9622   -9.1100   -4.6048 O.3       1 <0>        -0.1707
     21 C17         0.1013   -7.1680    2.3891 C.3       1 <0>         0.5255
     22 F1         -1.2139   -7.4381    2.7822 F         1 <0>        -0.1645
     23 F2          0.7771   -8.3720    2.1634 F         1 <0>        -0.1593
     24 F3          0.7516   -6.4503    3.3986 F         1 <0>        -0.1648
     25 H1          1.0042    1.8801    0.0026 H         1 <0>         0.0760
     26 H2         -0.5455    1.8639   -0.8728 H         1 <0>         0.0702
     27 H3         -0.5286    1.8543    0.9071 H         1 <0>         0.0705
     28 H4         -0.0068   -0.1384   -2.1317 H         1 <0>         0.1294
     29 H5          0.0274   -2.5981   -2.1549 H         1 <0>         0.1370
     30 H6          0.0485   -2.6214    2.1302 H         1 <0>         0.1314
     31 H7          0.0244   -0.1614    2.1341 H         1 <0>         0.1312
     32 H8          0.0642   -4.4576    2.1287 H         1 <0>         0.1604
     33 H9          0.0898   -6.4102   -3.2242 H         1 <0>         0.4210
     34 H10         1.0123   -8.7402   -1.9216 H         1 <0>         0.1032
     35 H11        -0.7675   -8.7650   -1.9216 H         1 <0>         0.0886
     36 H12         2.2460   -8.9724   -4.2923 H         1 <0>         0.1519
     37 H13         1.3801   -9.7789   -6.7204 H         1 <0>         0.1526
     38 H14        -1.2391   -9.7755   -6.6413 H         1 <0>         0.2069
@<TRIPOS>BOND
     1    1    2 1
     2    1   25 1
     3    1   26 1
     4    1   27 1
     5    2    7 ar
     6    2    3 ar
     7    3    4 ar
     8    3   28 1
     9    4    5 ar
    10    4   29 1
    11    5    6 ar
    12    5    8 1
    13    6    7 ar
    14    6   30 1
    15    7   31 1
    16    8   13 ar
    17    8    9 ar
    18    9   10 ar
    19    9   32 1
    20   10   11 ar
    21   10   21 1
    22   11   12 ar
    23   12   13 ar
    24   12   14 1
    25   14   15 1
    26   14   33 1
    27   15   16 1
    28   15   34 1
    29   15   35 1
    30   16   20 1
    31   16   17 2
    32   17   18 1
    33   17   36 1
    34   18   19 2
    35   18   37 1
    36   19   20 1
    37   19   38 1
    38   21   22 1
    39   21   23 1
    40   21   24 1
@<TRIPOS>MOLECULE
ZINC40374738
   39    42     0     0     0
SMALL
USER_CHARGES

@<TRIPOS>ATOM
      1 C1         -0.0167    1.3791    0.0096 C.ar      1 <0>        -0.1137
      2 C2          1.1686    2.0923    0.0021 C.ar      1 <0>        -0.1233
      3 C3          2.3774    1.4266   -0.0135 C.ar      1 <0>        -0.0867
      4 C4          2.4024    0.0329   -0.0212 C.ar      1 <0>        -0.0264
      5 C5          1.2049   -0.6804   -0.0131 C.ar      1 <0>        -0.1035
      6 C6          0.0021   -0.0041    0.0020 C.ar      1 <0>        -0.1206
      7 C7          3.6983   -0.6882   -0.0385 C.2       1 <0>         0.1182
      8 C8          3.7272   -2.0549   -0.0512 C.2       1 <0>        -0.2356
      9 S1          5.4909   -2.3490   -0.0683 S.3       1 <0>         0.1248
     10 C9          6.0028   -0.6364   -0.0568 C.2       1 <0>         0.3142
     11 N1          4.8386   -0.0139   -0.0471 N.2       1 <0>        -0.5269
     12 N2          7.2840   -0.1027   -0.0623 N.am      1 <0>        -0.6013
     13 C10         8.3548   -0.9210   -0.0791 C.2       1 <0>         0.6134
     14 O1          8.1983   -2.1282   -0.0893 O.2       1 <0>        -0.4762
     15 C11         9.7063   -0.3581   -0.0849 C.2       1 <0>        -0.0864
     16 C12        10.8823   -1.0766   -0.1071 C.2       1 <0>        -0.0886
     17 C13        11.9247   -0.1448   -0.1045 C.2       1 <0>        -0.1936
     18 C14        11.3542    1.0960   -0.0811 C.2       1 <0>         0.0754
     19 O2         10.0180    0.9554   -0.0754 O.3       1 <0>        -0.1502
     20 C15        12.0846    2.3790   -0.0704 C.ar      1 <0>        -0.0729
     21 C16        13.1196    2.5897    0.8434 C.ar      1 <0>        -0.0573
     22 C17        13.7977    3.7904    0.8480 C.ar      1 <0>        -0.1284
     23 C18        13.4556    4.7871   -0.0496 C.ar      1 <0>        -0.0711
     24 C19        12.4324    4.5877   -0.9581 C.ar      1 <0>        -0.1535
     25 C20        11.7475    3.3872   -0.9791 C.ar      1 <0>         0.1267
     26 F1         10.7518    3.1905   -1.8709 F         1 <0>        -0.1278
     27 H1         -0.9603    1.9042    0.0260 H         1 <0>         0.1235
     28 H2          1.1480    3.1720    0.0081 H         1 <0>         0.1246
     29 H3          3.3022    1.9843   -0.0200 H         1 <0>         0.1312
     30 H4          1.2184   -1.7603   -0.0194 H         1 <0>         0.1253
     31 H5         -0.9264   -0.5557    0.0079 H         1 <0>         0.1263
     32 H6          2.9105   -2.7616   -0.0511 H         1 <0>         0.2011
     33 H7          7.4088    0.8592   -0.0541 H         1 <0>         0.4321
     34 H8         10.9799   -2.1521   -0.1228 H         1 <0>         0.1719
     35 H9         12.9820   -0.3647   -0.1184 H         1 <0>         0.1675
     36 H10        13.3880    1.8140    1.5452 H         1 <0>         0.1423
     37 H11        14.5981    3.9538    1.5545 H         1 <0>         0.1405
     38 H12        13.9904    5.7254   -0.0401 H         1 <0>         0.1407
     39 H13        12.1706    5.3699   -1.6553 H         1 <0>         0.1442
@<TRIPOS>BOND
     1    1    6 ar
     2    1    2 ar
     3    1   27 1
     4    2    3 ar
     5    2   28 1
     6    3    4 ar
     7    3   29 1
     8    4    5 ar
     9    4    7 1
    10    5    6 ar
    11    5   30 1
    12    6   31 1
    13    7   11 1
    14    7    8 2
    15    8    9 1
    16    8   32 1
    17    9   10 1
    18   10   11 2
    19   10   12 1
    20   12   13 am
    21   12   33 1
    22   13   14 2
    23   13   15 1
    24   15   19 1
    25   15   16 2
    26   16   17 1
    27   16   34 1
    28   17   18 2
    29   17   35 1
    30   18   19 1
    31   18   20 1
    32   20   25 ar
    33   20   21 ar
    34   21   22 ar
    35   21   36 1
    36   22   23 ar
    37   22   37 1
    38   23   24 ar
    39   23   38 1
    40   24   25 ar
    41   24   39 1
    42   25   26 1
@<TRIPOS>MOLECULE
ZINC00898500
   48    50     0     0     0
SMALL
USER_CHARGES
2-[[4-methyl-5-(p-tolyl)-1,2,4-triazol-3-yl]sulfanyl]-N-(p-tolyl)propanamide
@<TRIPOS>ATOM
      1 C1          3.9953   -9.6319   -1.1969 C.3       1 <0>        -0.1203
      2 C2          3.3549   -8.2827   -0.9955 C.ar      1 <0>        -0.0680
      3 C3          4.1266   -7.2073   -0.5926 C.ar      1 <0>        -0.1178
      4 C4          3.5466   -5.9695   -0.4064 C.ar      1 <0>        -0.1085
      5 C5          2.1782   -5.8034   -0.6253 C.ar      1 <0>        -0.0273
      6 C6          1.4044   -6.8937   -1.0261 C.ar      1 <0>        -0.0681
      7 C7          1.9978   -8.1249   -1.2138 C.ar      1 <0>        -0.1177
      8 C8          1.5500   -4.4798   -0.4278 C.2       1 <0>         0.2307
      9 N1          0.2690   -4.2398   -0.2707 N.2       1 <0>        -0.2676
     10 N2          0.0744   -2.9786   -0.1187 N.2       1 <0>        -0.2868
     11 C9          1.2189   -2.3350   -0.1783 C.2       1 <0>         0.1446
     12 N3          2.1977   -3.2671   -0.3734 N.pl3     1 <0>        -0.4583
     13 C10         3.6373   -3.0262   -0.4987 C.3       1 <0>         0.0626
     14 S1          1.4484   -0.5945   -0.0270 S.3       1 <0>         0.0797
     15 C11        -0.2685   -0.0700    0.2036 C.3       1 <0>        -0.1085
     16 H1         -0.8760   -0.4420   -0.6214 H         1 <0>         0.1285
     17 C12        -0.8009   -0.6327    1.5230 C.3       1 <0>        -0.1462
     18 C13        -0.3338    1.4352    0.2367 C.2       1 <0>         0.5381
     19 O1          0.6639    2.0803    0.4805 O.2       1 <0>        -0.5034
     20 N4         -1.4997    2.0647   -0.0102 N.am      1 <0>        -0.6632
     21 C14        -1.5828    3.4562    0.1112 C.ar      1 <0>         0.1325
     22 C15        -2.7466    4.0447    0.5885 C.ar      1 <0>        -0.1358
     23 C16        -2.8234    5.4182    0.7125 C.ar      1 <0>        -0.1029
     24 C17        -1.7474    6.2078    0.3509 C.ar      1 <0>        -0.0962
     25 C18        -0.5890    5.6251   -0.1296 C.ar      1 <0>        -0.1030
     26 C19        -0.5038    4.2520   -0.2507 C.ar      1 <0>        -0.1134
     27 C20        -1.8371    7.7064    0.4812 C.3       1 <0>        -0.1154
     28 H2          3.9639  -10.1921   -0.2624 H         1 <0>         0.0755
     29 H3          3.4531  -10.1800   -1.9675 H         1 <0>         0.0704
     30 H4          5.0319   -9.4995   -1.5065 H         1 <0>         0.0695
     31 H5          5.1854   -7.3370   -0.4239 H         1 <0>         0.1301
     32 H6          4.1500   -5.1309   -0.0916 H         1 <0>         0.1279
     33 H7          0.3442   -6.7728   -1.1928 H         1 <0>         0.1372
     34 H8          1.4008   -8.9685   -1.5275 H         1 <0>         0.1321
     35 H9          4.1154   -3.1696    0.4703 H         1 <0>         0.0916
     36 H10         4.0612   -3.7248   -1.2201 H         1 <0>         0.1013
     37 H11         3.8064   -2.0047   -0.8396 H         1 <0>         0.0980
     38 H12        -0.1934   -0.2607    2.3481 H         1 <0>         0.0722
     39 H13        -1.8348   -0.3168    1.6619 H         1 <0>         0.0744
     40 H14        -0.7537   -1.7214    1.4991 H         1 <0>         0.0934
     41 H15        -2.2812    1.5532   -0.2720 H         1 <0>         0.4147
     42 H16        -3.5892    3.4289    0.8662 H         1 <0>         0.1269
     43 H17        -3.7265    5.8762    1.0882 H         1 <0>         0.1274
     44 H18         0.2498    6.2445   -0.4109 H         1 <0>         0.1265
     45 H19         0.4012    3.7975   -0.6261 H         1 <0>         0.1381
     46 H20        -2.2253    8.1291   -0.4455 H         1 <0>         0.0710
     47 H21        -2.5051    7.9602    1.3042 H         1 <0>         0.0667
     48 H22        -0.8456    8.1139    0.6791 H         1 <0>         0.0669
@<TRIPOS>BOND
     1    1    2 1
     2    1   28 1
     3    1   29 1
     4    1   30 1
     5    2    7 ar
     6    2    3 ar
     7    3    4 ar
     8    3   31 1
     9    4    5 ar
    10    4   32 1
    11    5    6 ar
    12    5    8 1
    13    6    7 ar
    14    6   33 1
    15    7   34 1
    16    8   12 1
    17    8    9 2
    18    9   10 1
    19   10   11 2
    20   11   12 1
    21   11   14 1
    22   12   13 1
    23   13   35 1
    24   13   36 1
    25   13   37 1
    26   14   15 1
    27   15   16 1
    28   15   17 1
    29   15   18 1
    30   17   38 1
    31   17   39 1
    32   17   40 1
    33   18   19 2
    34   18   20 am
    35   20   21 1
    36   20   41 1
    37   21   26 ar
    38   21   22 ar
    39   22   23 ar
    40   22   42 1
    41   23   24 ar
    42   23   43 1
    43   24   25 ar
    44   24   27 1
    45   25   26 ar
    46   25   44 1
    47   26   45 1
    48   27   46 1
    49   27   47 1
    50   27   48 1
@<TRIPOS>MOLECULE
ZINC05302089
   44    46     0     0     0
SMALL
USER_CHARGES
(2-chloro-3-pyridyl)carbamoylmethyl 9-thiabicyclo[6.3.0]undeca-10,12-diene-10-carboxylate
@<TRIPOS>ATOM
      1 C1         -8.6156    0.9816   -0.0948 C.ar      1 <0>        -0.1464
      2 C2         -7.3745    0.3875   -0.2623 C.ar      1 <0>        -0.0656
      3 C3         -7.1551   -0.8597    0.3146 C.ar      1 <0>         0.1138
      4 C4         -8.1791   -1.4557    1.0422 C.ar      1 <0>         0.1517
      5 N1         -9.3438   -0.8531    1.1807 N.ar      1 <0>        -0.4577
      6 C5         -9.5840    0.3268    0.6418 C.ar      1 <0>         0.1053
      7 Cl1        -7.9220   -3.0084    1.7748 Cl        1 <0>        -0.0246
      8 N2         -5.9197   -1.5021    0.1694 N.am      1 <0>        -0.6629
      9 C6         -4.7845   -0.7771    0.1228 C.2       1 <0>         0.5208
     10 O1         -4.8381    0.4346    0.1290 O.2       1 <0>        -0.4898
     11 C7         -3.4486   -1.4720    0.0631 C.3       1 <0>         0.0532
     12 O2         -2.3887   -0.4804    0.0207 O.3       1 <0>        -0.3265
     13 C8         -1.1218   -0.9402   -0.0353 C.2       1 <0>         0.5609
     14 O3         -0.9094   -2.1378   -0.0483 O.2       1 <0>        -0.4921
     15 C9         -0.0024    0.0021   -0.0805 C.2       1 <0>        -0.2379
     16 C10         1.3509   -0.2539   -0.1395 C.2       1 <0>        -0.0459
     17 C11         2.2288    0.8309   -0.1865 C.2       1 <0>        -0.1373
     18 C12         1.6856    2.0629   -0.1117 C.2       1 <0>        -0.1243
     19 S1         -0.0284    1.7836   -0.0731 S.3       1 <0>         0.1574
     20 C13         2.2849    3.4402    0.0039 C.3       1 <0>        -0.0483
     21 C14         3.8127    3.4057    0.0607 C.3       1 <0>        -0.1211
     22 C15         4.4001    3.2346   -1.3308 C.3       1 <0>        -0.1225
     23 C16         3.5851    2.2980   -2.2001 C.3       1 <0>        -0.1331
     24 C17         4.0434    0.8726   -1.8764 C.3       1 <0>        -0.1163
     25 C18         3.7097    0.5645   -0.4167 C.3       1 <0>        -0.0696
     26 H1         -8.8220    1.9475   -0.5317 H         1 <0>         0.1508
     27 H2         -6.5980    0.8789   -0.8298 H         1 <0>         0.1619
     28 H3        -10.5511    0.7876    0.7785 H         1 <0>         0.1713
     29 H4         -5.8807   -2.4690    0.1023 H         1 <0>         0.4189
     30 H5         -3.4015   -2.0927   -0.8317 H         1 <0>         0.1127
     31 H6         -3.3250   -2.0983    0.9466 H         1 <0>         0.1134
     32 H7          1.7227   -1.2678   -0.1489 H         1 <0>         0.1470
     33 H8          1.9766    4.0331   -0.8572 H         1 <0>         0.0878
     34 H9          1.9083    3.9145    0.9102 H         1 <0>         0.0873
     35 H10         4.1769    4.3383    0.4917 H         1 <0>         0.0741
     36 H11         4.1297    2.5727    0.6881 H         1 <0>         0.0776
     37 H12         4.4488    4.2103   -1.8144 H         1 <0>         0.0590
     38 H13         5.4116    2.8389   -1.2394 H         1 <0>         0.0650
     39 H14         2.5248    2.4082   -1.9728 H         1 <0>         0.0761
     40 H15         3.7654    2.5164   -3.2526 H         1 <0>         0.0644
     41 H16         3.5261    0.1665   -2.5260 H         1 <0>         0.0609
     42 H17         5.1191    0.7909   -2.0318 H         1 <0>         0.0702
     43 H18         4.3021    1.2050    0.2367 H         1 <0>         0.0884
     44 H19         3.9301   -0.4816   -0.2044 H         1 <0>         0.0724
@<TRIPOS>BOND
     1    1    6 ar
     2    1    2 ar
     3    1   26 1
     4    2    3 ar
     5    2   27 1
     6    3    4 ar
     7    3    8 1
     8    4    5 ar
     9    4    7 1
    10    5    6 ar
    11    6   28 1
    12    8    9 am
    13    8   29 1
    14    9   10 2
    15    9   11 1
    16   11   12 1
    17   11   30 1
    18   11   31 1
    19   12   13 1
    20   13   14 2
    21   13   15 1
    22   15   19 1
    23   15   16 2
    24   16   17 1
    25   16   32 1
    26   17   25 1
    27   17   18 2
    28   18   19 1
    29   18   20 1
    30   20   21 1
    31   20   33 1
    32   20   34 1
    33   21   22 1
    34   21   35 1
    35   21   36 1
    36   22   23 1
    37   22   37 1
    38   22   38 1
    39   23   24 1
    40   23   39 1
    41   23   40 1
    42   24   25 1
    43   24   41 1
    44   24   42 1
    45   25   43 1
    46   25   44 1
@<TRIPOS>MOLECULE
ZINC08280419
   46    49     0     0     0
SMALL
USER_CHARGES
2-(2,6-dimethylphenoxy)-N-(4-imidazo[2,1-b]thiazol-6-ylphenyl)acetamide
@<TRIPOS>ATOM
      1 C1          5.8253   14.2832   -2.0555 C.3       1 <0>        -0.1176
      2 C2          6.0304   14.8921   -0.6923 C.ar      1 <0>        -0.0922
      3 C3          6.5383   16.1715   -0.5759 C.ar      1 <0>        -0.1161
      4 C4          6.7317   16.7287    0.6746 C.ar      1 <0>        -0.1110
      5 C5          6.4131   16.0090    1.8114 C.ar      1 <0>        -0.1160
      6 C6          5.9001   14.7312    1.7003 C.ar      1 <0>        -0.0924
      7 C7          5.7046   14.1701    0.4466 C.ar      1 <0>         0.0830
      8 O1          5.2000   12.9133    0.3347 O.3       1 <0>        -0.3026
      9 C8          3.7787   12.7898    0.2519 C.3       1 <0>         0.0481
     10 C9          3.4070   11.3342    0.1334 C.2       1 <0>         0.5139
     11 O2          4.2739   10.4859    0.1209 O.2       1 <0>        -0.4883
     12 N1          2.1113   10.9749    0.0412 N.am      1 <0>        -0.6727
     13 C10         1.7590    9.6208    0.0423 C.ar      1 <0>         0.1523
     14 C11         2.5031    8.7111    0.7837 C.ar      1 <0>        -0.1192
     15 C12         2.1582    7.3761    0.7860 C.ar      1 <0>        -0.0663
     16 C13         1.0617    6.9394    0.0443 C.ar      1 <0>        -0.0232
     17 C14         0.3196    7.8531   -0.7024 C.ar      1 <0>        -0.0844
     18 C15         0.6653    9.1880   -0.6975 C.ar      1 <0>        -0.1419
     19 C16         0.6887    5.5035    0.0448 C.2       1 <0>         0.0845
     20 C17        -0.3482    4.9505   -0.6299 C.2       1 <0>        -0.0295
     21 N2         -0.3456    3.5860   -0.3603 N.pl3     1 <0>        -0.4351
     22 C18        -1.0837    2.4724   -0.6984 C.2       1 <0>         0.0275
     23 C19        -0.7637    1.2708   -0.2209 C.2       1 <0>        -0.1746
     24 S1          0.6605    1.6427    0.7906 S.3       1 <0>         0.1302
     25 C20         0.7191    3.3924    0.4809 C.2       1 <0>         0.1789
     26 N3          1.3234    4.5204    0.7161 N.2       1 <0>        -0.4327
     27 C21         5.5525   13.9476    2.9397 C.3       1 <0>        -0.1126
     28 H1          4.8234   14.5213   -2.4127 H         1 <0>         0.0684
     29 H2          6.5635   14.6868   -2.7485 H         1 <0>         0.0706
     30 H3          5.9406   13.2013   -1.9913 H         1 <0>         0.0754
     31 H4          6.7879   16.7356   -1.4624 H         1 <0>         0.1278
     32 H5          7.1327   17.7275    0.7636 H         1 <0>         0.1271
     33 H6          6.5651   16.4464    2.7871 H         1 <0>         0.1280
     34 H7          3.4175   13.3295   -0.6234 H         1 <0>         0.0873
     35 H8          3.3248   13.2087    1.1500 H         1 <0>         0.0890
     36 H9          1.4230   11.6550   -0.0260 H         1 <0>         0.4126
     37 H10         3.3526    9.0499    1.3582 H         1 <0>         0.1383
     38 H11         2.7373    6.6693    1.3618 H         1 <0>         0.1369
     39 H12        -0.5278    7.5165   -1.2811 H         1 <0>         0.1288
     40 H13         0.0882    9.8969   -1.2726 H         1 <0>         0.1309
     41 H14        -1.0495    5.4743   -1.2626 H         1 <0>         0.1853
     42 H15        -1.9319    2.5753   -1.3590 H         1 <0>         0.1756
     43 H16        -1.2438    0.3194   -0.3961 H         1 <0>         0.2186
     44 H17         6.4213   13.3738    3.2623 H         1 <0>         0.0767
     45 H18         5.2559   14.6344    3.7325 H         1 <0>         0.0684
     46 H19         4.7290   13.2679    2.7209 H         1 <0>         0.0646
@<TRIPOS>BOND
     1    1    2 1
     2    1   28 1
     3    1   29 1
     4    1   30 1
     5    2    7 ar
     6    2    3 ar
     7    3    4 ar
     8    3   31 1
     9    4    5 ar
    10    4   32 1
    11    5    6 ar
    12    5   33 1
    13    6    7 ar
    14    6   27 1
    15    7    8 1
    16    8    9 1
    17    9   10 1
    18    9   34 1
    19    9   35 1
    20   10   11 2
    21   10   12 am
    22   12   13 1
    23   12   36 1
    24   13   18 ar
    25   13   14 ar
    26   14   15 ar
    27   14   37 1
    28   15   16 ar
    29   15   38 1
    30   16   17 ar
    31   16   19 1
    32   17   18 ar
    33   17   39 1
    34   18   40 1
    35   19   26 1
    36   19   20 2
    37   20   21 1
    38   20   41 1
    39   21   25 1
    40   21   22 1
    41   22   23 2
    42   22   42 1
    43   23   24 1
    44   23   43 1
    45   24   25 1
    46   25   26 2
    47   27   44 1
    48   27   45 1
    49   27   46 1
@<TRIPOS>MOLECULE
ZINC37058295
   36    37     0     0     0
SMALL
USER_CHARGES

@<TRIPOS>ATOM
      1 C1         -0.0187    1.5258    0.0104 C.3       1 <0>        -0.1672
      2 C2          0.0021   -0.0041    0.0020 C.3       1 <0>         0.1856
      3 H1          0.5123   -0.3556   -0.8948 H         1 <0>         0.0934
      4 C3         -1.4117   -0.5257    0.0127 C.ar      1 <0>        -0.0777
      5 C4         -2.1227   -0.5708    1.1975 C.ar      1 <0>        -0.1061
      6 C5         -3.4195   -1.0487    1.2077 C.ar      1 <0>        -0.0857
      7 C6         -4.0061   -1.4819    0.0322 C.ar      1 <0>        -0.0886
      8 C7         -3.2943   -1.4366   -1.1530 C.ar      1 <0>        -0.0852
      9 C8         -1.9993   -0.9536   -1.1632 C.ar      1 <0>        -0.1007
     10 Br1        -5.7801   -2.1364    0.0456 Br        1 <0>        -0.0451
     11 N1          0.7106   -0.4894    1.1889 N.pl3     1 <0>        -0.7286
     12 C9          2.1055   -0.6041    1.1731 C.ar      1 <0>         0.2012
     13 C10         2.8193   -0.2533    0.0365 C.ar      1 <0>        -0.1158
     14 C11         4.1968   -0.3675    0.0234 C.ar      1 <0>        -0.0356
     15 C12         4.8661   -0.8308    1.1409 C.ar      1 <0>        -0.0670
     16 C13         4.1611   -1.1827    2.2773 C.ar      1 <0>        -0.1655
     17 C14         2.7812   -1.0654    2.3007 C.ar      1 <0>         0.1111
     18 O1          2.0870   -1.4049    3.4200 O.3       1 <0>        -0.3107
     19 C15         2.8460   -1.8700    4.5379 C.3       1 <0>         0.0243
     20 N2          4.9570    0.0066   -1.1901 N.pl3     1 <0>         0.0382
     21 O2          4.3732    0.4115   -2.1683 O.2       1 <0>        -0.1625
     22 O3          6.1618   -0.0927   -1.2032 O.3       1 <0>        -0.1607
     23 H2          1.0039    1.9031    0.0027 H         1 <0>         0.0659
     24 H3         -0.5459    1.8868   -0.8726 H         1 <0>         0.0732
     25 H4         -0.5289    1.8773    0.9072 H         1 <0>         0.0644
     26 H5         -1.6645   -0.2329    2.1152 H         1 <0>         0.1300
     27 H6         -3.9748   -1.0842    2.1334 H         1 <0>         0.1356
     28 H7         -3.7519   -1.7746   -2.0710 H         1 <0>         0.1371
     29 H8         -1.4449   -0.9143   -2.0892 H         1 <0>         0.1364
     30 H9          0.2131   -0.7312    1.9857 H         1 <0>         0.4107
     31 H10         2.2989    0.1085   -0.8380 H         1 <0>         0.1582
     32 H11         5.9424   -0.9184    1.1262 H         1 <0>         0.1539
     33 H12         4.6870   -1.5446    3.1484 H         1 <0>         0.1523
     34 H13         3.5447   -1.0941    4.8508 H         1 <0>         0.0619
     35 H14         2.1722   -2.1058    5.3617 H         1 <0>         0.1073
     36 H15         3.3999   -2.7648    4.2541 H         1 <0>         0.0619
@<TRIPOS>BOND
     1    1    2 1
     2    1   23 1
     3    1   24 1
     4    1   25 1
     5    2    3 1
     6    2    4 1
     7    2   11 1
     8    4    9 ar
     9    4    5 ar
    10    5    6 ar
    11    5   26 1
    12    6    7 ar
    13    6   27 1
    14    7    8 ar
    15    7   10 1
    16    8    9 ar
    17    8   28 1
    18    9   29 1
    19   11   12 1
    20   11   30 1
    21   12   17 ar
    22   12   13 ar
    23   13   14 ar
    24   13   31 1
    25   14   15 ar
    26   14   20 1
    27   15   16 ar
    28   15   32 1
    29   16   17 ar
    30   16   33 1
    31   17   18 1
    32   18   19 1
    33   19   34 1
    34   19   35 1
    35   19   36 1
    36   20   21 2
    37   20   22 1
@<TRIPOS>MOLECULE
ZINC45727919
   43    46     0     0     0
SMALL
USER_CHARGES

@<TRIPOS>ATOM
      1 C1         -1.1433   -0.9010    0.0140 C.ar      1 <0>        -0.1252
      2 C2         -1.0140   -2.2880    0.0032 C.ar      1 <0>        -0.0938
      3 C3          0.2123   -2.8785   -0.0131 C.ar      1 <0>        -0.0970
      4 C4          1.3703   -2.0817   -0.0198 C.ar      1 <0>         0.1585
      5 C5          1.2363   -0.6716   -0.0093 C.ar      1 <0>        -0.1295
      6 C6         -0.0441   -0.0969    0.0079 C.ar      1 <0>        -0.0886
      7 C7          2.3971    0.1275   -0.0160 C.ar      1 <0>        -0.0303
      8 C8          3.6095   -0.4952   -0.0325 C.ar      1 <0>        -0.1963
      9 C9          3.6754   -1.8947   -0.0421 C.ar      1 <0>         0.3810
     10 N1          2.5873   -2.6359   -0.0362 N.ar      1 <0>        -0.4704
     11 N2          4.9204   -2.5159   -0.0593 N.am      1 <0>        -0.6603
     12 C10         5.0053   -3.8577    0.0349 C.2       1 <0>         0.5070
     13 O1          3.9962   -4.5302    0.0415 O.2       1 <0>        -0.4628
     14 C11         6.3543   -4.5224    0.1319 C.3       1 <0>        -0.1369
     15 C12         6.1703   -6.0383    0.2275 C.3       1 <0>        -0.0090
     16 C13         7.5193   -6.7030    0.3246 C.2       1 <0>         0.2005
     17 N3          8.1533   -6.9701    1.4319 N.2       1 <0>        -0.4732
     18 C14         9.3196   -7.5616    1.1330 C.2       1 <0>        -0.0122
     19 C15         9.3948   -7.6568   -0.2192 C.2       1 <0>        -0.0091
     20 O2          8.2576   -7.1197   -0.7132 O.3       1 <0>        -0.1926
     21 C16        10.5053   -8.2408   -1.0009 C.ar      1 <0>        -0.0099
     22 C17        10.4446   -8.2635   -2.3952 C.ar      1 <0>        -0.0879
     23 C18        11.4839   -8.8098   -3.1192 C.ar      1 <0>        -0.1051
     24 C19        12.5858   -9.3350   -2.4654 C.ar      1 <0>        -0.0277
     25 C20        12.6515   -9.3158   -1.0824 C.ar      1 <0>        -0.1036
     26 C21        11.6212   -8.7666   -0.3478 C.ar      1 <0>        -0.0836
     27 Cl1        13.8899  -10.0209   -3.3834 Cl        1 <0>        -0.0604
     28 H1         -2.1280   -0.4576    0.0227 H         1 <0>         0.1276
     29 H2         -1.9008   -2.9045    0.0083 H         1 <0>         0.1304
     30 H3          0.2953   -3.9553   -0.0205 H         1 <0>         0.1366
     31 H4         -0.1571    0.9772    0.0160 H         1 <0>         0.1297
     32 H5          2.3278    1.2053   -0.0087 H         1 <0>         0.1449
     33 H6          4.5177    0.0892   -0.0384 H         1 <0>         0.1403
     34 H7          5.7272   -1.9833   -0.1391 H         1 <0>         0.4196
     35 H8          6.9420   -4.2829   -0.7543 H         1 <0>         0.1034
     36 H9          6.8735   -4.1627    1.0203 H         1 <0>         0.1084
     37 H10         5.5826   -6.2778    1.1138 H         1 <0>         0.1193
     38 H11         5.6511   -6.3980   -0.6608 H         1 <0>         0.1055
     39 H12        10.0633   -7.9000    1.8393 H         1 <0>         0.1892
     40 H13         9.5855   -7.8545   -2.9061 H         1 <0>         0.1384
     41 H14        11.4380   -8.8282   -4.1980 H         1 <0>         0.1409
     42 H15        13.5133   -9.7272   -0.5780 H         1 <0>         0.1434
     43 H16        11.6757   -8.7477    0.7306 H         1 <0>         0.1407
@<TRIPOS>BOND
     1    1    6 ar
     2    1    2 ar
     3    1   28 1
     4    2    3 ar
     5    2   29 1
     6    3    4 ar
     7    3   30 1
     8    4   10 ar
     9    4    5 ar
    10    5    6 ar
    11    5    7 ar
    12    6   31 1
    13    7    8 ar
    14    7   32 1
    15    8    9 ar
    16    8   33 1
    17    9   10 ar
    18    9   11 1
    19   11   12 am
    20   11   34 1
    21   12   13 2
    22   12   14 1
    23   14   15 1
    24   14   35 1
    25   14   36 1
    26   15   16 1
    27   15   37 1
    28   15   38 1
    29   16   20 1
    30   16   17 2
    31   17   18 1
    32   18   19 2
    33   18   39 1
    34   19   20 1
    35   19   21 1
    36   21   26 ar
    37   21   22 ar
    38   22   23 ar
    39   22   40 1
    40   23   24 ar
    41   23   41 1
    42   24   25 ar
    43   24   27 1
    44   25   26 ar
    45   25   42 1
    46   26   43 1
@<TRIPOS>MOLECULE
ZINC66966980
   39    41     0     0     0
SMALL
USER_CHARGES

@<TRIPOS>ATOM
      1 C1         -0.0187    1.5258    0.0104 C.3       1 <0>        -0.1586
      2 C2          0.0021   -0.0041    0.0020 C.3       1 <0>         0.2394
      3 H1         -1.0205   -0.3814    0.0098 H         1 <0>         0.1051
      4 C3          0.7074   -0.4901   -1.2379 C.2       1 <0>         0.1790
      5 N1          1.9950   -0.4782   -1.4507 N.2       1 <0>        -0.2745
      6 N2          2.2459   -0.9664   -2.6133 N.2       1 <0>        -0.2754
      7 C4          1.1279   -1.3105   -3.1957 C.2       1 <0>         0.1651
      8 N3          0.1228   -1.0265   -2.3376 N.pl3     1 <0>        -0.4869
      9 C5         -1.1793   -1.3955   -2.9062 C.3       1 <0>         0.0978
     10 C6         -0.9366   -1.5643   -4.4219 C.3       1 <0>        -0.1290
     11 C7          0.5671   -1.9081   -4.4681 C.3       1 <0>        -0.0425
     12 N4          0.7106   -0.4894    1.1889 N.am      1 <0>        -0.7148
     13 C8          0.0512   -0.6335    2.3554 C.2       1 <0>         0.5660
     14 O1         -1.1319   -0.3606    2.4228 O.2       1 <0>        -0.5296
     15 C9          0.7645   -1.1220    3.5502 C.ar      1 <0>        -0.1282
     16 C10         2.1263   -1.4307    3.4757 C.ar      1 <0>        -0.0628
     17 C11         2.7867   -1.8847    4.5879 C.ar      1 <0>        -0.0884
     18 C12         2.1024   -2.0390    5.7914 C.ar      1 <0>        -0.0802
     19 C13         0.7458   -1.7323    5.8687 C.ar      1 <0>        -0.1299
     20 C14         0.0816   -1.2720    4.7613 C.ar      1 <0>        -0.0315
     21 S1          2.9544   -2.6238    7.2186 S.3       1 <0>        -0.0115
     22 C15         1.6787   -2.6581    8.5078 C.3       1 <0>         0.4505
     23 F1          0.6468   -3.5195    8.1201 F         1 <0>        -0.1614
     24 F2          2.2393   -3.1119    9.7066 F         1 <0>        -0.1422
     25 F3          1.1662   -1.3693    8.6911 F         1 <0>        -0.1611
     26 H2          1.0039    1.9031    0.0027 H         1 <0>         0.0723
     27 H3         -0.5459    1.8868   -0.8726 H         1 <0>         0.0685
     28 H4         -0.5289    1.8773    0.9072 H         1 <0>         0.0781
     29 H5         -1.5274   -2.3335   -2.4735 H         1 <0>         0.0990
     30 H6         -1.9069   -0.6040   -2.7268 H         1 <0>         0.1000
     31 H7         -1.5393   -2.3781   -4.8251 H         1 <0>         0.1088
     32 H8         -1.1342   -0.6339   -4.9544 H         1 <0>         0.0920
     33 H9          1.0425   -1.4609   -5.3411 H         1 <0>         0.1074
     34 H10         0.7007   -2.9899   -4.4723 H         1 <0>         0.1040
     35 H11         1.6544   -0.7070    1.1351 H         1 <0>         0.4107
     36 H12         2.6572   -1.3119    2.5427 H         1 <0>         0.1405
     37 H13         3.8385   -2.1232    4.5310 H         1 <0>         0.1437
     38 H14         0.2177   -1.8532    6.8030 H         1 <0>         0.1326
     39 H15        -0.9691   -1.0298    4.8229 H         1 <0>         0.1480
@<TRIPOS>BOND
     1    1    2 1
     2    1   26 1
     3    1   27 1
     4    1   28 1
     5    2    3 1
     6    2    4 1
     7    2   12 1
     8    4    8 1
     9    4    5 2
    10    5    6 1
    11    6    7 2
    12    7   11 1
    13    7    8 1
    14    8    9 1
    15    9   10 1
    16    9   29 1
    17    9   30 1
    18   10   11 1
    19   10   31 1
    20   10   32 1
    21   11   33 1
    22   11   34 1
    23   12   13 am
    24   12   35 1
    25   13   14 2
    26   13   15 1
    27   15   20 ar
    28   15   16 ar
    29   16   17 ar
    30   16   36 1
    31   17   18 ar
    32   17   37 1
    33   18   19 ar
    34   18   21 1
    35   19   20 ar
    36   19   38 1
    37   20   39 1
    38   21   22 1
    39   22   23 1
    40   22   24 1
    41   22   25 1
@<TRIPOS>MOLECULE
ZINC08873065
   26    27     0     0     0
SMALL
USER_CHARGES
4-iodo-N-(4-iodophenyl)-benzamide
@<TRIPOS>ATOM
      1 C1          1.2264   -4.9233   -0.2449 C.ar      1 <0>        -0.0808
      2 C2          1.2468   -6.2973   -0.3639 C.ar      1 <0>        -0.0912
      3 C3          2.4526   -6.9668   -0.4829 C.ar      1 <0>        -0.0750
      4 C4          3.6444   -6.2625   -0.4900 C.ar      1 <0>        -0.0909
      5 C5          3.6372   -4.8878   -0.3784 C.ar      1 <0>        -0.0502
      6 C6          2.4245   -4.2067   -0.2577 C.ar      1 <0>        -0.1213
      7 C7          2.4094   -2.7338   -0.1378 C.2       1 <0>         0.5610
      8 O1          3.4545   -2.1128   -0.1442 O.2       1 <0>        -0.5054
      9 N1          1.2371   -2.0791   -0.0214 N.am      1 <0>        -0.6696
     10 C8          1.2143   -0.6806   -0.0192 C.ar      1 <0>         0.1649
     11 C9          0.2689   -0.0013    0.7382 C.ar      1 <0>        -0.1407
     12 C10         0.2486    1.3796    0.7380 C.ar      1 <0>        -0.0637
     13 C11         1.1687    2.0861   -0.0156 C.ar      1 <0>        -0.1148
     14 C12         2.1116    1.4123   -0.7709 C.ar      1 <0>        -0.0633
     15 C13         2.1369    0.0315   -0.7747 C.ar      1 <0>        -0.1168
     16 I1          1.1337    4.1808   -0.0134 I         1 <0>        -0.0399
     17 I2          2.4739   -9.0547   -0.6536 I         1 <0>        -0.0266
     18 H1          0.2853   -4.4025   -0.1469 H         1 <0>         0.1352
     19 H2          0.3203   -6.8523   -0.3597 H         1 <0>         0.1394
     20 H3          4.5819   -6.7906   -0.5834 H         1 <0>         0.1405
     21 H4          4.5676   -4.3394   -0.3848 H         1 <0>         0.1479
     22 H5          0.4092   -2.5778    0.0609 H         1 <0>         0.4132
     23 H6         -0.4495   -0.5524    1.3270 H         1 <0>         0.1356
     24 H7         -0.4892    1.9083    1.3232 H         1 <0>         0.1350
     25 H8          2.8287    1.9666   -1.3583 H         1 <0>         0.1343
     26 H9          2.8734   -0.4941   -1.3644 H         1 <0>         0.1430
@<TRIPOS>BOND
     1    1    6 ar
     2    1    2 ar
     3    1   18 1
     4    2    3 ar
     5    2   19 1
     6    3    4 ar
     7    3   17 1
     8    4    5 ar
     9    4   20 1
    10    5    6 ar
    11    5   21 1
    12    6    7 1
    13    7    8 2
    14    7    9 am
    15    9   10 1
    16    9   22 1
    17   10   15 ar
    18   10   11 ar
    19   11   12 ar
    20   11   23 1
    21   12   13 ar
    22   12   24 1
    23   13   14 ar
    24   13   16 1
    25   14   15 ar
    26   14   25 1
    27   15   26 1
@<TRIPOS>MOLECULE
ZINC00658518
   38    41     0     0     0
SMALL
USER_CHARGES
(3R)-3-hydroxy-2-(4-iodophenyl)-3-phenyl-isoindolin-1-one
@<TRIPOS>ATOM
      1 C1         -4.7952    3.7042   -3.4322 C.ar      1 <0>        -0.1045
      2 C2         -5.1164    3.0238   -2.2726 C.ar      1 <0>        -0.1135
      3 C3         -4.3270    3.1658   -1.1467 C.ar      1 <0>        -0.1020
      4 C4         -3.2162    3.9878   -1.1806 C.ar      1 <0>        -0.1267
      5 C5         -2.8979    4.6723   -2.3386 C.ar      1 <0>        -0.0883
      6 C6         -3.6849    4.5269   -3.4658 C.ar      1 <0>        -0.1124
      7 C7         -2.3556    4.1426    0.0468 C.3       1 <0>         0.4349
      8 C8         -1.2421    3.1253    0.0307 C.ar      1 <0>        -0.1026
      9 C9         -1.2222    1.7498    0.0174 C.ar      1 <0>        -0.0864
     10 C10        -0.0126    1.0758    0.0080 C.ar      1 <0>        -0.0817
     11 C11         1.1775    1.7820    0.0004 C.ar      1 <0>        -0.1145
     12 C12         1.1689    3.1613    0.0079 C.ar      1 <0>        -0.0405
     13 C13        -0.0468    3.8481    0.0232 C.ar      1 <0>        -0.1480
     14 C14        -0.3756    5.2861    0.0340 C.2       1 <0>         0.5673
     15 O1          0.4420    6.1857    0.0311 O.2       1 <0>        -0.4862
     16 N1         -1.7085    5.4595    0.0477 N.am      1 <0>        -0.5335
     17 C15        -2.3696    6.6920    0.0602 C.ar      1 <0>         0.1936
     18 C16        -3.7578    6.7370    0.0675 C.ar      1 <0>        -0.1329
     19 C17        -4.4077    7.9554    0.0852 C.ar      1 <0>        -0.0589
     20 C18        -3.6776    9.1304    0.0851 C.ar      1 <0>        -0.1211
     21 C19        -2.2949    9.0889    0.0721 C.ar      1 <0>        -0.0569
     22 C20        -1.6393    7.8734    0.0596 C.ar      1 <0>        -0.1505
     23 I1         -4.6678   10.9765    0.1039 I         1 <0>        -0.0421
     24 O2         -3.1484    3.9841    1.2251 O.3       1 <0>        -0.5403
     25 H1         -5.4115    3.5927   -4.3120 H         1 <0>         0.1279
     26 H2         -5.9839    2.3810   -2.2463 H         1 <0>         0.1299
     27 H3         -4.5780    2.6342   -0.2407 H         1 <0>         0.1249
     28 H4         -2.0326    5.3180   -2.3638 H         1 <0>         0.1188
     29 H5         -3.4337    5.0583   -4.3719 H         1 <0>         0.1277
     30 H6         -2.1494    1.1960    0.0184 H         1 <0>         0.1341
     31 H7          0.0021   -0.0041    0.0020 H         1 <0>         0.1401
     32 H8          2.1177    1.2506   -0.0111 H         1 <0>         0.1404
     33 H9          2.0999    3.7086    0.0023 H         1 <0>         0.1394
     34 H10        -4.3283    5.8200    0.0632 H         1 <0>         0.1381
     35 H11        -5.4871    7.9910    0.0950 H         1 <0>         0.1337
     36 H12        -1.7275   10.0078    0.0712 H         1 <0>         0.1354
     37 H13        -0.5598    7.8416    0.0491 H         1 <0>         0.1606
     38 H14        -3.5810    3.1221    1.2951 H         1 <0>         0.3964
@<TRIPOS>BOND
     1    1    6 ar
     2    1    2 ar
     3    1   25 1
     4    2    3 ar
     5    2   26 1
     6    3    4 ar
     7    3   27 1
     8    4    5 ar
     9    4    7 1
    10    5    6 ar
    11    5   28 1
    12    6   29 1
    13    7   16 1
    14    7    8 1
    15    7   24 1
    16    8   13 ar
    17    8    9 ar
    18    9   10 ar
    19    9   30 1
    20   10   11 ar
    21   10   31 1
    22   11   12 ar
    23   11   32 1
    24   12   13 ar
    25   12   33 1
    26   13   14 1
    27   14   15 2
    28   14   16 am
    29   16   17 1
    30   17   22 ar
    31   17   18 ar
    32   18   19 ar
    33   18   34 1
    34   19   20 ar
    35   19   35 1
    36   20   21 ar
    37   20   23 1
    38   21   22 ar
    39   21   36 1
    40   22   37 1
    41   24   38 1
@<TRIPOS>MOLECULE
ZINC36956928
   36    38     0     0     0
SMALL
USER_CHARGES

@<TRIPOS>ATOM
      1 C1         -0.0187    1.5258    0.0104 C.3       1 <0>        -0.1662
      2 C2          0.0021   -0.0041    0.0020 C.3       1 <0>         0.1908
      3 H1          0.5123   -0.3556   -0.8948 H         1 <0>         0.0941
      4 C3          0.7309   -0.5033    1.2229 C.ar      1 <0>        -0.0909
      5 C4          0.0796   -0.5580    2.4412 C.ar      1 <0>        -0.1072
      6 C5          0.7450   -1.0140    3.5633 C.ar      1 <0>        -0.1069
      7 C6          2.0685   -1.4183    3.4699 C.ar      1 <0>         0.0545
      8 C7          2.7225   -1.3656    2.2448 C.ar      1 <0>         0.0558
      9 C8          2.0475   -0.9109    1.1217 C.ar      1 <0>        -0.1001
     10 O1          4.0186   -1.7649    2.1294 O.3       1 <0>        -0.3057
     11 C9          4.7710   -1.8671    3.3432 C.3       1 <0>         0.0201
     12 C10         3.9151   -2.6094    4.3784 C.3       1 <0>         0.0194
     13 O2          2.7119   -1.8612    4.5846 O.3       1 <0>        -0.3060
     14 N1         -1.3723   -0.5112    0.0124 N.pl3     1 <0>        -0.7289
     15 C11        -2.0760   -0.6476   -1.1875 C.ar      1 <0>         0.2635
     16 C12        -1.4716   -0.3083   -2.3911 C.ar      1 <0>        -0.1893
     17 C13        -2.1691   -0.4446   -3.5753 C.ar      1 <0>        -0.0238
     18 C14        -3.4692   -0.9182   -3.5639 C.ar      1 <0>        -0.1481
     19 C15        -4.0744   -1.2572   -2.3670 C.ar      1 <0>        -0.0100
     20 C16        -3.3797   -1.1284   -1.1793 C.ar      1 <0>        -0.1694
     21 Br1        -4.2048   -1.5992    0.4558 Br        1 <0>        -0.0415
     22 Br2        -4.4207   -1.1020   -5.1877 Br        1 <0>        -0.0469
     23 H2          1.0039    1.9031    0.0027 H         1 <0>         0.0714
     24 H3         -0.5459    1.8868   -0.8726 H         1 <0>         0.0668
     25 H4         -0.5289    1.8773    0.9072 H         1 <0>         0.0641
     26 H5         -0.9509   -0.2436    2.5161 H         1 <0>         0.1295
     27 H6          0.2341   -1.0551    4.5139 H         1 <0>         0.1382
     28 H7          2.5527   -0.8713    0.1679 H         1 <0>         0.1380
     29 H8          5.6905   -2.4231    3.1599 H         1 <0>         0.1250
     30 H9          5.0111   -0.8699    3.7119 H         1 <0>         0.0796
     31 H10         3.6699   -3.6045    4.0071 H         1 <0>         0.0795
     32 H11         4.4625   -2.6913    5.3173 H         1 <0>         0.1249
     33 H12        -1.7940   -0.7522    0.8520 H         1 <0>         0.4055
     34 H13        -0.4572    0.0621   -2.4009 H         1 <0>         0.1406
     35 H14        -1.6993   -0.1808   -4.5113 H         1 <0>         0.1387
     36 H15        -5.0894   -1.6263   -2.3611 H         1 <0>         0.1411
@<TRIPOS>BOND
     1    1    2 1
     2    1   23 1
     3    1   24 1
     4    1   25 1
     5    2    3 1
     6    2    4 1
     7    2   14 1
     8    4    9 ar
     9    4    5 ar
    10    5    6 ar
    11    5   26 1
    12    6    7 ar
    13    6   27 1
    14    7   13 1
    15    7    8 ar
    16    8    9 ar
    17    8   10 1
    18    9   28 1
    19   10   11 1
    20   11   12 1
    21   11   29 1
    22   11   30 1
    23   12   13 1
    24   12   31 1
    25   12   32 1
    26   14   15 1
    27   14   33 1
    28   15   20 ar
    29   15   16 ar
    30   16   17 ar
    31   16   34 1
    32   17   18 ar
    33   17   35 1
    34   18   19 ar
    35   18   22 1
    36   19   20 ar
    37   19   36 1
    38   20   21 1
@<TRIPOS>MOLECULE
ZINC39526088
   41    43     0     0     0
SMALL
USER_CHARGES

@<TRIPOS>ATOM
      1 C1         -0.0167    1.3782    0.0096 C.ar      1 <0>        -0.1266
      2 C2          1.1700    2.0882    0.0021 C.ar      1 <0>        -0.1077
      3 C3          2.3773    1.4175   -0.0134 C.ar      1 <0>        -0.1430
      4 C4          2.3989    0.0301   -0.0210 C.ar      1 <0>         0.1074
      5 C5          1.2072   -0.6797   -0.0130 C.ar      1 <0>        -0.1010
      6 C6          0.0021   -0.0041    0.0020 C.ar      1 <0>        -0.1016
      7 C7          1.2269   -2.1888   -0.0218 C.3       1 <0>        -0.0616
      8 H1          2.2582   -2.5311   -0.0341 H         1 <0>         0.1029
      9 C8          0.5222   -2.7072    1.2344 C.3       1 <0>        -0.1048
     10 C9          0.6269   -4.2312    1.2542 C.3       1 <0>        -0.1357
     11 C10        -0.0089   -4.8444    0.0203 C.3       1 <0>        -0.1084
     12 C11         0.4079   -4.2179   -1.3026 C.3       1 <0>         0.1291
     13 C12         0.4809   -2.6998   -1.2489 C.3       1 <0>        -0.1362
     14 C13        -0.7121   -4.5729   -2.3174 C.3       1 <0>        -0.1086
     15 C14        -0.3625   -3.9641   -3.6738 C.3       1 <0>        -0.1262
     16 C15         0.9712   -4.5356   -4.1595 C.3       1 <0>        -0.1145
     17 C16         2.0534   -4.2716   -3.1106 C.3       1 <0>         0.1683
     18 H2          2.2279   -3.1985   -3.0309 H         1 <0>         0.0858
     19 N1          1.6381   -4.8100   -1.8145 N.3       1 <0>        -0.5444
     20 I1          3.1767   -4.8030   -0.4691 I         1 <0>         0.1222
     21 Cl1         3.5863   -5.0741   -3.6269 Cl        1 <0>        -0.1424
     22 O1          3.5855   -0.6321   -0.0368 O.3       1 <0>        -0.4919
     23 H3         -0.9596    1.9045    0.0259 H         1 <0>         0.1242
     24 H4          1.1527    3.1681    0.0080 H         1 <0>         0.1258
     25 H5          3.3038    1.9724   -0.0200 H         1 <0>         0.1281
     26 H6         -0.9260   -0.5563    0.0079 H         1 <0>         0.1236
     27 H7          1.0037   -2.2932    2.1192 H         1 <0>         0.0653
     28 H8         -0.5256   -2.4104    1.2124 H         1 <0>         0.0634
     29 H9          1.6673   -4.5301    1.3526 H         1 <0>         0.0816
     30 H10         0.0965   -4.5993    2.1465 H         1 <0>         0.0649
     31 H11         0.2337   -5.9177   -0.0083 H         1 <0>         0.0774
     32 H12        -1.1034   -4.7748    0.1126 H         1 <0>         0.0760
     33 H13        -0.5413   -2.2958   -1.2306 H         1 <0>         0.0768
     34 H14         0.9653   -2.3141   -2.1495 H         1 <0>         0.0660
     35 H15        -0.7738   -5.6549   -2.3960 H         1 <0>         0.0796
     36 H16        -1.6499   -4.1635   -1.9525 H         1 <0>         0.0782
     37 H17        -1.1444   -4.2110   -4.3956 H         1 <0>         0.0782
     38 H18        -0.2880   -2.8806   -3.5878 H         1 <0>         0.0683
     39 H19         0.8721   -5.6097   -4.3174 H         1 <0>         0.0875
     40 H20         1.2517   -4.0565   -5.0983 H         1 <0>         0.0855
     41 H21         3.9380   -0.8285    0.8420 H         1 <0>         0.3880
@<TRIPOS>BOND
     1    1    6 ar
     2    1    2 ar
     3    1   23 1
     4    2    3 ar
     5    2   24 1
     6    3    4 ar
     7    3   25 1
     8    4    5 ar
     9    4   22 1
    10    5    6 ar
    11    5    7 1
    12    6   26 1
    13    7    8 1
    14    7   13 1
    15    7    9 1
    16    9   10 1
    17    9   27 1
    18    9   28 1
    19   10   11 1
    20   10   29 1
    21   10   30 1
    22   11   12 1
    23   11   31 1
    24   11   32 1
    25   12   19 1
    26   12   13 1
    27   12   14 1
    28   13   33 1
    29   13   34 1
    30   14   15 1
    31   14   35 1
    32   14   36 1
    33   15   16 1
    34   15   37 1
    35   15   38 1
    36   16   17 1
    37   16   39 1
    38   16   40 1
    39   17   18 1
    40   17   19 1
    41   17   21 1
    42   19   20 1
    43   22   41 1
@<TRIPOS>MOLECULE
ZINC01107530
   26    27     0     0     0
SMALL
USER_CHARGES

@<TRIPOS>ATOM
      1 C1          0.4741    1.3722    0.9890 C.ar      1 <0>        -0.0890
      2 C2          1.1724    2.0866    0.0312 C.ar      1 <0>        -0.1209
      3 C3          1.8959    1.4245   -0.9444 C.ar      1 <0>        -0.0787
      4 C4          1.9261    0.0445   -0.9683 C.ar      1 <0>        -0.0833
      5 C5          1.2237   -0.6828   -0.0039 C.ar      1 <0>         0.1059
      6 C6          0.4952   -0.0068    0.9775 C.ar      1 <0>        -0.1452
      7 N1          1.2486   -2.0510   -0.0214 N.2       1 <0>        -0.4433
      8 C7          0.1374   -2.7246    0.0844 C.2       1 <0>         0.2061
      9 C8          0.1735   -4.1910    0.1865 C.ar      1 <0>        -0.0973
     10 C9         -1.0166   -4.9182    0.2944 C.ar      1 <0>        -0.0272
     11 C10        -0.9754   -6.2929    0.3898 C.ar      1 <0>        -0.1080
     12 C11         0.2404   -6.9585    0.3792 C.ar      1 <0>        -0.0271
     13 C12         1.4236   -6.2522    0.2731 C.ar      1 <0>        -0.1304
     14 C13         1.4012   -4.8694    0.1704 C.ar      1 <0>         0.2052
     15 O1          2.5625   -4.1751    0.0604 O.3       1 <0>        -0.4518
     16 Br1         3.0750   -7.1733    0.2606 Br        1 <0>        -0.0161
     17 Br2        -2.5848   -7.2749    0.5363 Br        1 <0>        -0.0258
     18 Br3         2.9151   -0.8591   -2.3030 Br        1 <0>        -0.0276
     19 H1         -0.0852    1.8960    1.7501 H         1 <0>         0.1330
     20 H2          1.1521    3.1663    0.0453 H         1 <0>         0.1347
     21 H3          2.4379    1.9883   -1.6892 H         1 <0>         0.1378
     22 H4         -0.0500   -0.5626    1.7260 H         1 <0>         0.1313
     23 H5         -0.8096   -2.2055    0.0972 H         1 <0>         0.1185
     24 H6         -1.9661   -4.4036    0.3034 H         1 <0>         0.1505
     25 H7          0.2633   -8.0356    0.4547 H         1 <0>         0.1499
     26 H8          2.9449   -3.9115    0.9086 H         1 <0>         0.3988
@<TRIPOS>BOND
     1    1    6 ar
     2    1    2 ar
     3    1   19 1
     4    2    3 ar
     5    2   20 1
     6    3    4 ar
     7    3   21 1
     8    4    5 ar
     9    4   18 1
    10    5    6 ar
    11    5    7 1
    12    6   22 1
    13    7    8 2
    14    8    9 1
    15    8   23 1
    16    9   14 ar
    17    9   10 ar
    18   10   11 ar
    19   10   24 1
    20   11   12 ar
    21   11   17 1
    22   12   13 ar
    23   12   25 1
    24   13   14 ar
    25   13   16 1
    26   14   15 1
    27   15   26 1
@<TRIPOS>MOLECULE
ZINC00494051
   40    44     0     0     0
SMALL
USER_CHARGES
2-quinolylBLAHcarboxylic acid
@<TRIPOS>ATOM
      1 C1          0.8008   14.1742   -1.2988 C.ar      1 <0>        -0.1151
      2 C2         -0.3991   13.5516   -0.9754 C.ar      1 <0>        -0.1203
      3 C3         -0.4318   12.2271   -0.6445 C.ar      1 <0>        -0.1024
      4 C4          0.7539   11.4878   -0.6305 C.ar      1 <0>        -0.0298
      5 C5          1.9767   12.1182   -0.9595 C.ar      1 <0>        -0.0598
      6 C6          1.9750   13.4791   -1.2945 C.ar      1 <0>        -0.1201
      7 C7          3.1772   11.3714   -0.9467 C.ar      1 <0>        -0.0872
      8 C8          3.1885   10.0622   -0.6254 C.ar      1 <0>        -0.0954
      9 C9          1.9989    9.3727   -0.2865 C.ar      1 <0>         0.1417
     10 C10         0.7676   10.0681   -0.2827 C.ar      1 <0>        -0.0592
     11 C11        -0.4165    9.3796    0.0547 C.ar      1 <0>        -0.0398
     12 C12        -0.3170    8.0275    0.3694 C.ar      1 <0>        -0.1136
     13 C13         0.9392    7.4110    0.3481 C.ar      1 <0>         0.1660
     14 N1          2.0317    8.0790    0.0278 N.ar      1 <0>        -0.4688
     15 C14         1.0446    5.9710    0.6877 C.ar      1 <0>         0.2166
     16 C15         2.3032    5.3505    0.6610 C.ar      1 <0>        -0.1336
     17 C16         2.4140    4.0275    0.9715 C.ar      1 <0>        -0.0678
     18 C17         1.2434    3.3217    1.3127 C.ar      1 <0>        -0.1023
     19 C18         1.2855    1.9581    1.6436 C.ar      1 <0>        -0.0983
     20 C19         0.1341    1.3079    1.9688 C.ar      1 <0>        -0.1186
     21 C20        -1.0885    1.9769    1.9727 C.ar      1 <0>        -0.1072
     22 C21        -1.1660    3.2994    1.6622 C.ar      1 <0>        -0.0864
     23 C22         0.0018    4.0061    1.3212 C.ar      1 <0>         0.1321
     24 N2         -0.0465    5.3030    1.0082 N.ar      1 <0>        -0.4590
     25 C23        -1.7228   10.0719    0.0705 C.2       1 <0>         0.5066
     26 O1         -2.4746    9.9718   -0.8781 O.co2     1 <0>        -0.6134
     27 H1          0.8038   15.2227   -1.5575 H         1 <0>         0.1188
     28 H2         -1.3162   14.1219   -0.9860 H         1 <0>         0.1224
     29 H3         -1.3696   11.7533   -0.3945 H         1 <0>         0.1820
     30 H4          2.8998   13.9760   -1.5479 H         1 <0>         0.1233
     31 H5          4.1062   11.8611   -1.1989 H         1 <0>         0.1293
     32 H6          4.1265    9.5269   -0.6265 H         1 <0>         0.1322
     33 H7         -1.1988    7.4613    0.6304 H         1 <0>         0.1475
     34 H8          3.1819    5.9197    0.3955 H         1 <0>         0.1508
     35 H9          3.3743    3.5334    0.9566 H         1 <0>         0.1408
     36 H10         2.2262    1.4276    1.6405 H         1 <0>         0.1282
     37 H11         0.1682    0.2588    2.2227 H         1 <0>         0.1251
     38 H12        -1.9882    1.4380    2.2302 H         1 <0>         0.1288
     39 H13        -2.1208    3.8040    1.6744 H         1 <0>         0.1378
     40 O2         -2.0791   10.8138    1.1369 O.co2     1 <0>        -0.7317
@<TRIPOS>BOND
     1    1    6 ar
     2    1    2 ar
     3    1   27 1
     4    2    3 ar
     5    2   28 1
     6    3    4 ar
     7    3   29 1
     8    4   10 ar
     9    4    5 ar
    10    5    6 ar
    11    5    7 ar
    12    6   30 1
    13    7    8 ar
    14    7   31 1
    15    8    9 ar
    16    8   32 1
    17    9   14 ar
    18    9   10 ar
    19   10   11 ar
    20   11   12 ar
    21   11   25 1
    22   12   13 ar
    23   12   33 1
    24   13   14 ar
    25   13   15 1
    26   15   24 ar
    27   15   16 ar
    28   16   17 ar
    29   16   34 1
    30   17   18 ar
    31   17   35 1
    32   18   23 ar
    33   18   19 ar
    34   19   20 ar
    35   19   36 1
    36   20   21 ar
    37   20   37 1
    38   21   22 ar
    39   21   38 1
    40   22   23 ar
    41   22   39 1
    42   23   24 ar
    43   25   26 2
    44   25   40 1
@<TRIPOS>MOLECULE
ZINC19862005
   35    37     0     0     0
SMALL
USER_CHARGES
3-[4-(4-chlorophenyl)phthalazin-1-yl]sulfanylpropanoic acid
@<TRIPOS>ATOM
      1 C1         -1.2137    1.7888   -0.5632 C.ar      1 <0>        -0.0938
      2 C2          0.0064    1.1183   -0.5617 C.ar      1 <0>        -0.1040
      3 C3          1.1783    1.7918   -0.3754 C.ar      1 <0>        -0.0790
      4 C4          1.1506    3.1758   -0.1773 C.ar      1 <0>        -0.0629
      5 C5         -0.0925    3.8574   -0.1731 C.ar      1 <0>        -0.0497
      6 C6         -1.2750    3.1377   -0.3669 C.ar      1 <0>        -0.1041
      7 C7         -0.0743    5.2598    0.0315 C.ar      1 <0>         0.1158
      8 N1          1.0877    5.8653    0.2077 N.ar      1 <0>        -0.2253
      9 N2          2.2104    5.2486    0.2037 N.ar      1 <0>        -0.2616
     10 C8          2.3225    3.9428    0.0230 C.ar      1 <0>         0.0994
     11 S1          3.9064    3.1710    0.0322 S.3       1 <0>        -0.0431
     12 C9          4.9582    4.6154    0.3213 C.3       1 <0>        -0.0729
     13 C10         6.4235    4.1778    0.3698 C.3       1 <0>        -0.1493
     14 C11         7.2992    5.3803    0.6105 C.2       1 <0>         0.4684
     15 O1          6.8023    6.4751    0.7309 O.co2     1 <0>        -0.6316
     16 O2          8.6312    5.2353    0.6911 O.co2     1 <0>        -0.7671
     17 C12        -1.3361    6.0342    0.0473 C.ar      1 <0>        -0.0254
     18 C13        -1.4202    7.2496   -0.6325 C.ar      1 <0>        -0.0672
     19 C14        -2.6000    7.9643   -0.6188 C.ar      1 <0>        -0.1087
     20 C15        -3.6961    7.4829    0.0770 C.ar      1 <0>        -0.0267
     21 C16        -3.6167    6.2797    0.7578 C.ar      1 <0>        -0.1106
     22 C17        -2.4436    5.5540    0.7467 C.ar      1 <0>        -0.0910
     23 Cl1        -5.1753    8.3914    0.0964 Cl        1 <0>        -0.0695
     24 H1         -2.1262    1.2320   -0.7174 H         1 <0>         0.1334
     25 H2          0.0260    0.0494   -0.7147 H         1 <0>         0.1348
     26 H3          2.1187    1.2608   -0.3812 H         1 <0>         0.1433
     27 H4         -2.2282    3.6454   -0.3658 H         1 <0>         0.1425
     28 H5          4.8187    5.3398   -0.4947 H         1 <0>         0.0996
     29 H6          4.6835    5.0835    1.2781 H         1 <0>         0.0997
     30 H7          6.5630    3.4534    1.1858 H         1 <0>         0.0749
     31 H8          6.6983    3.7097   -0.5870 H         1 <0>         0.0750
     32 H9         -0.5644    7.6284   -1.1715 H         1 <0>         0.1407
     33 H10        -2.6676    8.9031   -1.1483 H         1 <0>         0.1392
     34 H11        -4.4747    5.9089    1.2989 H         1 <0>         0.1386
     35 H12        -2.3826    4.6160    1.2786 H         1 <0>         0.1381
@<TRIPOS>BOND
     1    1    6 ar
     2    1    2 ar
     3    1   24 1
     4    2    3 ar
     5    2   25 1
     6    3    4 ar
     7    3   26 1
     8    4   10 ar
     9    4    5 ar
    10    5    6 ar
    11    5    7 ar
    12    6   27 1
    13    7    8 ar
    14    7   17 1
    15    8    9 ar
    16    9   10 ar
    17   10   11 1
    18   11   12 1
    19   12   13 1
    20   12   28 1
    21   12   29 1
    22   13   14 1
    23   13   30 1
    24   13   31 1
    25   14   15 2
    26   14   16 1
    27   17   22 ar
    28   17   18 ar
    29   18   19 ar
    30   18   32 1
    31   19   20 ar
    32   19   33 1
    33   20   21 ar
    34   20   23 1
    35   21   22 ar
    36   21   34 1
    37   22   35 1
@<TRIPOS>MOLECULE
ZINC01027980
   38    41     0     0     0
SMALL
USER_CHARGES

@<TRIPOS>ATOM
      1 C1         -0.0167    1.3794    0.0096 C.ar      1 <0>        -0.0914
      2 C2          1.1683    2.0935    0.0021 C.ar      1 <0>        -0.1225
      3 C3          2.3774    1.4292   -0.0129 C.ar      1 <0>        -0.0808
      4 C4          2.4034    0.0337   -0.0206 C.ar      1 <0>        -0.0366
      5 C5          1.2043   -0.6806   -0.0130 C.ar      1 <0>        -0.0624
      6 C6          0.0021   -0.0041    0.0020 C.ar      1 <0>        -0.1228
      7 C7          3.6952   -0.6845   -0.0372 C.2       1 <0>         0.3017
      8 N1          3.8294   -1.9862   -0.0507 N.2       1 <0>        -0.4691
      9 C8          5.1536   -2.2886   -0.0641 C.ar      1 <0>         0.0415
     10 C9          5.8649   -3.4885   -0.0808 C.ar      1 <0>        -0.0448
     11 C10         7.2559   -3.4625   -0.0912 C.ar      1 <0>         0.0834
     12 C11         7.9356   -2.2376   -0.0849 C.ar      1 <0>        -0.1217
     13 C12         7.2346   -1.0534   -0.0684 C.ar      1 <0>        -0.0719
     14 C13         5.8466   -1.0660   -0.0579 C.ar      1 <0>         0.0038
     15 O1          4.9056   -0.0951   -0.0466 O.3       1 <0>        -0.2066
     16 N2          7.9614   -4.6357   -0.1071 N.2       1 <0>        -0.4493
     17 C14         8.9752   -4.7756   -0.9144 C.2       1 <0>         0.2013
     18 C15         9.7330   -6.0357   -0.9315 C.ar      1 <0>        -0.0992
     19 C16        10.8250   -6.1883   -1.7919 C.ar      1 <0>        -0.0613
     20 C17        11.5312   -7.3727   -1.8021 C.ar      1 <0>        -0.0544
     21 C18        11.1629   -8.4133   -0.9633 C.ar      1 <0>        -0.0712
     22 C19        10.0863   -8.2752   -0.1089 C.ar      1 <0>        -0.1441
     23 C20         9.3684   -7.0901   -0.0808 C.ar      1 <0>         0.1653
     24 O2          8.3135   -6.9521    0.7623 O.3       1 <0>        -0.4697
     25 Cl1        12.8866   -7.5617   -2.8701 Cl        1 <0>        -0.0600
     26 H1         -0.9605    1.9041    0.0260 H         1 <0>         0.1314
     27 H2          1.1468    3.1732    0.0078 H         1 <0>         0.1338
     28 H3          3.3017    1.9878   -0.0191 H         1 <0>         0.1332
     29 H4          1.2176   -1.7605   -0.0193 H         1 <0>         0.1407
     30 H5         -0.9265   -0.5556    0.0079 H         1 <0>         0.1353
     31 H6          5.3390   -4.4318   -0.0853 H         1 <0>         0.1443
     32 H7          9.0155   -2.2224   -0.0926 H         1 <0>         0.1425
     33 H8          7.7653   -0.1128   -0.0632 H         1 <0>         0.1414
     34 H9          9.2587   -3.9661   -1.5707 H         1 <0>         0.1148
     35 H10        11.1145   -5.3801   -2.4473 H         1 <0>         0.1444
     36 H11        11.7211   -9.3378   -0.9783 H         1 <0>         0.1416
     37 H12         9.8060   -9.0907    0.5412 H         1 <0>         0.1440
     38 H13         7.4681   -7.2286    0.3830 H         1 <0>         0.3957
@<TRIPOS>BOND
     1    1    6 ar
     2    1    2 ar
     3    1   26 1
     4    2    3 ar
     5    2   27 1
     6    3    4 ar
     7    3   28 1
     8    4    5 ar
     9    4    7 1
    10    5    6 ar
    11    5   29 1
    12    6   30 1
    13    7   15 1
    14    7    8 2
    15    8    9 1
    16    9   14 ar
    17    9   10 ar
    18   10   11 ar
    19   10   31 1
    20   11   12 ar
    21   11   16 1
    22   12   13 ar
    23   12   32 1
    24   13   14 ar
    25   13   33 1
    26   14   15 1
    27   16   17 2
    28   17   18 1
    29   17   34 1
    30   18   23 ar
    31   18   19 ar
    32   19   20 ar
    33   19   35 1
    34   20   21 ar
    35   20   25 1
    36   21   22 ar
    37   21   36 1
    38   22   23 ar
    39   22   37 1
    40   23   24 1
    41   24   38 1
@<TRIPOS>MOLECULE
ZINC50042509
   33    34     0     0     0
SMALL
USER_CHARGES

@<TRIPOS>ATOM
      1 C1         -0.0049    1.4960    0.2916 C.3       1 <0>        -0.1439
      2 C2          0.0023   -0.0048   -0.0060 C.3       1 <0>        -0.0537
      3 C3          0.8238   -0.7322    1.0603 C.3       1 <0>        -0.1443
      4 C4         -1.4116   -0.5262    0.0069 C.ar      1 <0>        -0.0864
      5 C5         -2.1794   -0.4107    1.1510 C.ar      1 <0>        -0.1022
      6 C6         -3.4757   -0.8878    1.1654 C.ar      1 <0>        -0.1160
      7 C7         -4.0071   -1.4834    0.0305 C.ar      1 <0>         0.1000
      8 C8         -3.2345   -1.5981   -1.1163 C.ar      1 <0>        -0.1146
      9 C9         -1.9407   -1.1142   -1.1272 C.ar      1 <0>        -0.1060
     10 O1         -5.2819   -1.9540    0.0422 O.3       1 <0>        -0.1990
     11 C10        -6.2915   -1.0569   -0.0528 C.ar      1 <0>         0.3522
     12 C11        -7.6230   -1.4891    0.0651 C.ar      1 <0>        -0.1882
     13 C12        -8.6511   -0.5423   -0.0367 C.ar      1 <0>         0.0127
     14 C13        -8.3066    0.7809   -0.2497 C.ar      1 <0>        -0.1928
     15 C14        -6.9704    1.1282   -0.3550 C.ar      1 <0>         0.1614
     16 N1         -6.0182    0.2215   -0.2507 N.ar      1 <0>        -0.5352
     17 Br1        -9.6497    2.1039   -0.3963 Br        1 <0>        -0.0533
     18 C15        -7.9325   -2.9099    0.2908 C.2       1 <0>         0.5271
     19 O2         -9.0961   -3.2740    0.3918 O.co2     1 <0>        -0.6840
     20 O3         -7.0261   -3.7270    0.3776 O.co2     1 <0>        -0.6584
     21 H1          1.0178    1.8731    0.2823 H         1 <0>         0.0549
     22 H2         -0.5902    2.0142   -0.4680 H         1 <0>         0.0564
     23 H3         -0.4473    1.6698    1.2725 H         1 <0>         0.0566
     24 H4          0.4447   -0.1786   -0.9868 H         1 <0>         0.0759
     25 H5          0.8289   -1.8014    0.8483 H         1 <0>         0.0565
     26 H6          1.8465   -0.3551    1.0510 H         1 <0>         0.0553
     27 H7          0.3814   -0.5584    2.0411 H         1 <0>         0.0567
     28 H8         -1.7652    0.0527    2.0342 H         1 <0>         0.1226
     29 H9         -4.0749   -0.7977    2.0594 H         1 <0>         0.1232
     30 H10        -3.6458   -2.0612   -2.0010 H         1 <0>         0.1279
     31 H11        -1.3403   -1.1993   -2.0210 H         1 <0>         0.1242
     32 H12        -9.6864   -0.8380    0.0485 H         1 <0>         0.1547
     33 H13        -6.7027    2.1612   -0.5212 H         1 <0>         0.1600
@<TRIPOS>BOND
     1    1    2 1
     2    1   21 1
     3    1   22 1
     4    1   23 1
     5    2    3 1
     6    2    4 1
     7    2   24 1
     8    3   25 1
     9    3   26 1
    10    3   27 1
    11    4    9 ar
    12    4    5 ar
    13    5    6 ar
    14    5   28 1
    15    6    7 ar
    16    6   29 1
    17    7    8 ar
    18    7   10 1
    19    8    9 ar
    20    8   30 1
    21    9   31 1
    22   10   11 1
    23   11   16 ar
    24   11   12 ar
    25   12   13 ar
    26   12   18 1
    27   13   14 ar
    28   13   32 1
    29   14   15 ar
    30   14   17 1
    31   15   16 ar
    32   15   33 1
    33   18   19 2
    34   18   20 1
@<TRIPOS>MOLECULE
ZINC05520083
   43    45     0     0     0
SMALL
USER_CHARGES

@<TRIPOS>ATOM
      1 C1         -2.0326   -0.0972    0.2740 C.3       1 <0>        -0.1542
      2 C2         -2.0227   -1.6072    0.5205 C.3       1 <0>        -0.1260
      3 C3         -1.0471   -1.9327    1.6532 C.3       1 <0>        -0.1141
      4 C4         -1.0372   -3.4427    1.8997 C.3       1 <0>        -0.0836
      5 C5         -0.0762   -3.7633    3.0154 C.ar      1 <0>        -0.0781
      6 C6          1.2507   -4.0289    2.7262 C.ar      1 <0>        -0.1026
      7 C7          2.1359   -4.3226    3.7424 C.ar      1 <0>        -0.0916
      8 C8          1.6901   -4.3516    5.0659 C.ar      1 <0>         0.0879
      9 C9          0.3493   -4.0825    5.3503 C.ar      1 <0>        -0.1424
     10 C10        -0.5236   -3.7851    4.3246 C.ar      1 <0>        -0.0975
     11 N1          2.5627   -4.6427    6.0789 N.2       1 <0>        -0.4575
     12 C11         2.5598   -3.9202    7.1765 C.2       1 <0>         0.3767
     13 N2          3.3579   -4.0537    8.2917 N.am      1 <0>        -0.6476
     14 C12         3.2227   -3.2330    9.3197 C.2       1 <0>         0.5629
     15 O1          3.9188   -3.3363   10.3125 O.2       1 <0>        -0.4808
     16 C13         2.1880   -2.1848    9.2072 C.2       1 <0>        -0.2136
     17 C14         1.8379   -1.2222   10.0961 C.2       1 <0>         0.0658
     18 C15         0.8971   -0.1640    9.7011 C.ar      1 <0>        -0.1440
     19 C16         0.4847   -0.0368    8.3655 C.ar      1 <0>        -0.0489
     20 C17        -0.4015    0.9758    8.0476 C.ar      1 <0>        -0.1675
     21 C18        -0.8494    1.8233    9.0460 C.ar      1 <0>         0.1217
     22 N3         -0.4456    1.6815   10.2941 N.ar      1 <0>        -0.4833
     23 C19         0.3923    0.7308   10.6507 C.ar      1 <0>         0.1431
     24 S1          1.5261   -2.5221    7.5819 S.3       1 <0>        -0.0172
     25 H1         -1.0312    0.2322   -0.0030 H         1 <0>         0.0537
     26 H2         -2.7276    0.1346   -0.5329 H         1 <0>         0.0544
     27 H3         -2.3459    0.4171    1.1825 H         1 <0>         0.0536
     28 H4         -3.0241   -1.9367    0.7976 H         1 <0>         0.0620
     29 H5         -1.7093   -2.1216   -0.3880 H         1 <0>         0.0621
     30 H6         -0.0457   -1.6032    1.3761 H         1 <0>         0.0638
     31 H7         -1.3604   -1.4184    2.5617 H         1 <0>         0.0635
     32 H8         -2.0386   -3.7722    2.1767 H         1 <0>         0.0741
     33 H9         -0.7238   -3.9571    0.9912 H         1 <0>         0.0745
     34 H10         1.5939   -4.0064    1.7025 H         1 <0>         0.1304
     35 H11         3.1712   -4.5300    3.5153 H         1 <0>         0.1314
     36 H12        -0.0023   -4.1036    6.3713 H         1 <0>         0.1294
     37 H13        -1.5596   -3.5725    4.5435 H         1 <0>         0.1278
     38 H14         4.0253   -4.7568    8.3232 H         1 <0>         0.4247
     39 H15         2.2503   -1.2332   11.0942 H         1 <0>         0.1668
     40 H16         0.8503   -0.7120    7.6060 H         1 <0>         0.1434
     41 H17        -0.7405    1.1043    7.0303 H         1 <0>         0.1447
     42 H18        -1.5413    2.6149    8.7990 H         1 <0>         0.1641
     43 H19         0.6958    0.6437   11.6835 H         1 <0>         0.1681
@<TRIPOS>BOND
     1    1    2 1
     2    1   25 1
     3    1   26 1
     4    1   27 1
     5    2    3 1
     6    2   28 1
     7    2   29 1
     8    3    4 1
     9    3   30 1
    10    3   31 1
    11    4    5 1
    12    4   32 1
    13    4   33 1
    14    5   10 ar
    15    5    6 ar
    16    6    7 ar
    17    6   34 1
    18    7    8 ar
    19    7   35 1
    20    8    9 ar
    21    8   11 1
    22    9   10 ar
    23    9   36 1
    24   10   37 1
    25   11   12 2
    26   12   24 1
    27   12   13 1
    28   13   14 am
    29   13   38 1
    30   14   15 2
    31   14   16 1
    32   16   17 2
    33   16   24 1
    34   17   18 1
    35   17   39 1
    36   18   23 ar
    37   18   19 ar
    38   19   20 ar
    39   19   40 1
    40   20   21 ar
    41   20   41 1
    42   21   22 ar
    43   21   42 1
    44   22   23 ar
    45   23   43 1
@<TRIPOS>MOLECULE
ZINC06429891
   44    46     0     0     0
SMALL
USER_CHARGES
2-[(4-chlorophenyl)methylene]-N,N'-bis(2-fluorophenyl)-propanediamide
@<TRIPOS>ATOM
      1 C1          4.1663    9.5319   -0.7669 C.ar      1 <0>        -0.1058
      2 C2          5.3575    9.8149   -1.4097 C.ar      1 <0>        -0.1087
      3 C3          6.1589    8.7871   -1.8717 C.ar      1 <0>        -0.1305
      4 C4          5.7704    7.4719   -1.6922 C.ar      1 <0>         0.0659
      5 C5          4.5728    7.1851   -1.0460 C.ar      1 <0>         0.1173
      6 C6          3.7693    8.2208   -0.5888 C.ar      1 <0>        -0.1125
      7 N1          4.1758    5.8556   -0.8622 N.am      1 <0>        -0.6589
      8 C7          2.8808    5.5654   -0.6267 C.2       1 <0>         0.5798
      9 O1          2.0418    6.4450   -0.6753 O.2       1 <0>        -0.5068
     10 C8          2.4820    4.1851   -0.3109 C.2       1 <0>        -0.2377
     11 C9          1.1489    3.8674   -0.1757 C.2       1 <0>         0.0610
     12 C10         0.7412    2.4681   -0.0173 C.ar      1 <0>        -0.1084
     13 C11        -0.3762    2.1439    0.7638 C.ar      1 <0>        -0.0669
     14 C12        -0.7529    0.8267    0.9071 C.ar      1 <0>        -0.1143
     15 C13        -0.0297   -0.1769    0.2816 C.ar      1 <0>        -0.0108
     16 C14         1.0769    0.1352   -0.4927 C.ar      1 <0>        -0.1087
     17 C15         1.4666    1.4474   -0.6466 C.ar      1 <0>        -0.0862
     18 Cl1        -0.5121   -1.8339    0.4696 Cl        1 <0>        -0.0565
     19 C16         3.5073    3.1441   -0.1395 C.2       1 <0>         0.5669
     20 O2          4.1179    2.7269   -1.1055 O.2       1 <0>        -0.5054
     21 N2          3.7702    2.6527    1.0876 N.am      1 <0>        -0.6511
     22 C17         4.8248    1.7506    1.2691 C.ar      1 <0>         0.1142
     23 C18         5.8434    1.6727    0.3290 C.ar      1 <0>        -0.1129
     24 C19         6.8858    0.7852    0.5133 C.ar      1 <0>        -0.1049
     25 C20         6.9108   -0.0338    1.6273 C.ar      1 <0>        -0.1065
     26 C21         5.8961    0.0361    2.5640 C.ar      1 <0>        -0.1306
     27 C22         4.8520    0.9260    2.3886 C.ar      1 <0>         0.0687
     28 F1          3.8600    0.9939    3.3032 F         1 <0>        -0.1370
     29 F2          6.5528    6.4676   -2.1443 F         1 <0>        -0.1366
     30 H1          3.5431   10.3374   -0.4075 H         1 <0>         0.1354
     31 H2          5.6625   10.8412   -1.5516 H         1 <0>         0.1356
     32 H3          7.0886    9.0115   -2.3733 H         1 <0>         0.1411
     33 H4          2.8364    8.0016   -0.0909 H         1 <0>         0.1631
     34 H5          4.8326    5.1430   -0.9043 H         1 <0>         0.4167
     35 H6          0.4037    4.6491   -0.1863 H         1 <0>         0.1638
     36 H7         -0.9431    2.9250    1.2484 H         1 <0>         0.1444
     37 H8         -1.6138    0.5752    1.5087 H         1 <0>         0.1430
     38 H9          1.6352   -0.6526   -0.9765 H         1 <0>         0.1399
     39 H10         2.3291    1.6889   -1.2500 H         1 <0>         0.1487
     40 H11         3.2284    2.9242    1.8451 H         1 <0>         0.4180
     41 H12         5.8228    2.3082   -0.5440 H         1 <0>         0.1619
     42 H13         7.6802    0.7276   -0.2160 H         1 <0>         0.1357
     43 H14         7.7248   -0.7300    1.7659 H         1 <0>         0.1357
     44 H15         5.9186   -0.6049    3.4329 H         1 <0>         0.1408
@<TRIPOS>BOND
     1    1    6 ar
     2    1    2 ar
     3    1   30 1
     4    2    3 ar
     5    2   31 1
     6    3    4 ar
     7    3   32 1
     8    4    5 ar
     9    4   29 1
    10    5    6 ar
    11    5    7 1
    12    6   33 1
    13    7    8 am
    14    7   34 1
    15    8    9 2
    16    8   10 1
    17   10   11 2
    18   10   19 1
    19   11   12 1
    20   11   35 1
    21   12   17 ar
    22   12   13 ar
    23   13   14 ar
    24   13   36 1
    25   14   15 ar
    26   14   37 1
    27   15   16 ar
    28   15   18 1
    29   16   17 ar
    30   16   38 1
    31   17   39 1
    32   19   20 2
    33   19   21 am
    34   21   22 1
    35   21   40 1
    36   22   27 ar
    37   22   23 ar
    38   23   24 ar
    39   23   41 1
    40   24   25 ar
    41   24   42 1
    42   25   26 ar
    43   25   43 1
    44   26   27 ar
    45   26   44 1
    46   27   28 1
@<TRIPOS>MOLECULE
ZINC12639565
   45    48     0     0     0
SMALL
USER_CHARGES
2-[4-[6-chloro-4-(2-fluorophenyl)-2-quinolyl]phenoxy]acetamide
@<TRIPOS>ATOM
      1 C1         -0.0126    1.0758    0.0080 C.ar      1 <0>        -0.1271
      2 C2         -1.2215    1.7494    0.0173 C.ar      1 <0>        -0.0795
      3 C3         -1.2499    3.1316    0.0299 C.ar      1 <0>        -0.1521
      4 C4         -0.0683    3.8497    0.0225 C.ar      1 <0>         0.1169
      5 C5          1.1544    3.1745    0.0076 C.ar      1 <0>        -0.0960
      6 C6          1.1737    1.7797    0.0004 C.ar      1 <0>        -0.0695
      7 C7          2.4244    3.9358   -0.0009 C.ar      1 <0>         0.0221
      8 C8          3.2873    3.8735   -1.0837 C.ar      1 <0>        -0.1476
      9 C9          4.4775    4.6116   -1.0615 C.ar      1 <0>         0.2175
     10 N1          4.8082    5.3608   -0.0259 N.ar      1 <0>        -0.4676
     11 C10         4.0221    5.4578    1.0501 C.ar      1 <0>         0.1448
     12 C11         2.7981    4.7473    1.1020 C.ar      1 <0>        -0.0839
     13 C12         1.9802    4.8557    2.2335 C.ar      1 <0>        -0.0793
     14 C13         2.3704    5.6448    3.2755 C.ar      1 <0>        -0.0302
     15 C14         3.5745    6.3454    3.2283 C.ar      1 <0>        -0.0917
     16 C15         4.3921    6.2620    2.1434 C.ar      1 <0>        -0.0770
     17 Cl1         1.3552    5.7781    4.6774 Cl        1 <0>        -0.0604
     18 C16         5.3915    4.5445   -2.2264 C.ar      1 <0>        -0.0958
     19 C17         5.0630    3.7545   -3.3277 C.ar      1 <0>        -0.0526
     20 C18         5.9125    3.6988   -4.4120 C.ar      1 <0>        -0.2146
     21 C19         7.0995    4.4196   -4.4038 C.ar      1 <0>         0.1461
     22 C20         7.4324    5.2024   -3.3061 C.ar      1 <0>        -0.1515
     23 C21         6.5844    5.2669   -2.2211 C.ar      1 <0>        -0.0304
     24 O1          7.9368    4.3585   -5.4716 O.3       1 <0>        -0.2867
     25 C22         7.5327    3.5342   -6.5666 C.3       1 <0>         0.0374
     26 C23         8.5785    3.5903   -7.6503 C.2       1 <0>         0.5189
     27 O2          9.5720    4.2693   -7.4997 O.2       1 <0>        -0.5156
     28 N2          8.4096    2.8859   -8.7868 N.am      1 <0>        -0.8500
     29 F1         -0.0962    5.2004    0.0291 F         1 <0>        -0.1296
     30 H1          0.0021   -0.0041    0.0020 H         1 <0>         0.1363
     31 H2         -2.1470    1.1928    0.0187 H         1 <0>         0.1376
     32 H3         -2.1965    3.6514    0.0414 H         1 <0>         0.1414
     33 H4          2.1158    1.2518   -0.0107 H         1 <0>         0.1367
     34 H5          3.0413    3.2639   -1.9406 H         1 <0>         0.1448
     35 H6          1.0452    4.3174    2.2809 H         1 <0>         0.1357
     36 H7          3.8630    6.9641    4.0652 H         1 <0>         0.1440
     37 H8          5.3215    6.8116    2.1219 H         1 <0>         0.1492
     38 H9          4.1422    3.1902   -3.3328 H         1 <0>         0.1318
     39 H10         5.6565    3.0906   -5.2671 H         1 <0>         0.1335
     40 H11         8.3563    5.7615   -3.3025 H         1 <0>         0.1394
     41 H12         6.8438    5.8758   -1.3677 H         1 <0>         0.1457
     42 H13         7.4189    2.5055   -6.2244 H         1 <0>         0.0972
     43 H14         6.5819    3.8934   -6.9603 H         1 <0>         0.0972
     44 H15         7.6150    2.3427   -8.9073 H         1 <0>         0.4037
     45 H16         9.0827    2.9220   -9.4844 H         1 <0>         0.4107
@<TRIPOS>BOND
     1    1    6 ar
     2    1    2 ar
     3    1   30 1
     4    2    3 ar
     5    2   31 1
     6    3    4 ar
     7    3   32 1
     8    4    5 ar
     9    4   29 1
    10    5    6 ar
    11    5    7 1
    12    6   33 1
    13    7   12 ar
    14    7    8 ar
    15    8    9 ar
    16    8   34 1
    17    9   10 ar
    18    9   18 1
    19   10   11 ar
    20   11   16 ar
    21   11   12 ar
    22   12   13 ar
    23   13   14 ar
    24   13   35 1
    25   14   15 ar
    26   14   17 1
    27   15   16 ar
    28   15   36 1
    29   16   37 1
    30   18   23 ar
    31   18   19 ar
    32   19   20 ar
    33   19   38 1
    34   20   21 ar
    35   20   39 1
    36   21   22 ar
    37   21   24 1
    38   22   23 ar
    39   22   40 1
    40   23   41 1
    41   24   25 1
    42   25   26 1
    43   25   42 1
    44   25   43 1
    45   26   27 2
    46   26   28 am
    47   28   44 1
    48   28   45 1
@<TRIPOS>MOLECULE
ZINC14467707
   48    51     0     0     0
SMALL
USER_CHARGES
2-[(3aR,4R,9bS)-8-(2-methoxyethoxy)-3a,4,5,9b-tetrahydro-3H-cyclopenta[c]quinolin-4-yl]-4,6-dichloro-phenol
@<TRIPOS>ATOM
      1 C1          9.4926   10.8504   -0.5304 C.3       1 <0>         0.0303
      2 O1          8.4532    9.9300   -0.1923 O.3       1 <0>        -0.3846
      3 C2          8.6616    9.2470    1.0455 C.3       1 <0>         0.0616
      4 C3          7.4937    8.2931    1.3046 C.3       1 <0>         0.0633
      5 O2          7.4829    7.2710    0.3060 O.3       1 <0>        -0.3103
      6 C4          6.5004    6.3346    0.3915 C.ar      1 <0>         0.0859
      7 C5          5.5681    6.4016    1.4167 C.ar      1 <0>        -0.1669
      8 C6          4.5740    5.4472    1.4990 C.ar      1 <0>        -0.1442
      9 C7          4.5090    4.4261    0.5597 C.ar      1 <0>         0.1857
     10 C8          5.4357    4.3544   -0.4686 C.ar      1 <0>        -0.0942
     11 C9          6.4329    5.3175   -0.5446 C.ar      1 <0>        -0.1084
     12 C10         5.3992    3.2771   -1.5055 C.3       1 <0>        -0.0142
     13 H1          5.5371    3.7168   -2.4933 H         1 <0>         0.0950
     14 C11         6.4807    2.2491   -1.2736 C.2       1 <0>        -0.1518
     15 C12         6.0467    1.0509   -1.5842 C.2       1 <0>        -0.1713
     16 C13         4.6140    1.1194   -2.0769 C.3       1 <0>        -0.1003
     17 C14         4.0924    2.4604   -1.4820 C.3       1 <0>        -0.0916
     18 H2          3.2962    2.9196   -2.0680 H         1 <0>         0.1049
     19 C15         3.6755    2.1853   -0.0342 C.3       1 <0>         0.2203
     20 H3          4.4514    1.6050    0.4651 H         1 <0>         0.0819
     21 N1          3.4943    3.4640    0.6608 N.pl3     1 <0>        -0.7445
     22 C16         2.3805    1.4147   -0.0195 C.ar      1 <0>        -0.0941
     23 C17         2.3777    0.0739    0.3153 C.ar      1 <0>        -0.0779
     24 C18         1.1896   -0.6345    0.3286 C.ar      1 <0>        -0.0319
     25 C19         0.0012   -0.0025    0.0070 C.ar      1 <0>        -0.0856
     26 C20        -0.0004    1.3382   -0.3288 C.ar      1 <0>        -0.0563
     27 C21         1.1914    2.0504   -0.3427 C.ar      1 <0>         0.1365
     28 O3          1.1924    3.3694   -0.6722 O.3       1 <0>        -0.4703
     29 Cl1        -1.4909    2.1308   -0.7334 Cl        1 <0>        -0.0389
     30 Cl2         1.1883   -2.3169    0.7565 Cl        1 <0>        -0.0478
     31 H4          9.5720   11.6104    0.2469 H         1 <0>         0.0416
     32 H5         10.4387   10.3155   -0.6135 H         1 <0>         0.0429
     33 H6          9.2601   11.3274   -1.4825 H         1 <0>         0.0879
     34 H7          8.7237    9.9737    1.8555 H         1 <0>         0.0708
     35 H8          9.5904    8.6788    0.9951 H         1 <0>         0.0612
     36 H9          6.5562    8.8479    1.2668 H         1 <0>         0.0694
     37 H10         7.6074    7.8384    2.2887 H         1 <0>         0.0756
     38 H11         5.6200    7.1958    2.1467 H         1 <0>         0.1263
     39 H12         3.8459    5.4944    2.2952 H         1 <0>         0.1226
     40 H13         7.1621    5.2722   -1.3400 H         1 <0>         0.1279
     41 H14         7.4708    2.4674   -0.9016 H         1 <0>         0.1274
     42 H15         6.6270    0.1437   -1.5030 H         1 <0>         0.1283
     43 H16         4.0355    0.2785   -1.6942 H         1 <0>         0.0727
     44 H17         4.5831    1.1444   -3.1661 H         1 <0>         0.0822
     45 H18         2.6923    3.6398    1.1774 H         1 <0>         0.3947
     46 H19         3.3039   -0.4213    0.5666 H         1 <0>         0.1470
     47 H20        -0.9254   -0.5572    0.0180 H         1 <0>         0.1497
     48 H21         0.9948    3.9598    0.0677 H         1 <0>         0.3912
@<TRIPOS>BOND
     1    1    2 1
     2    1   31 1
     3    1   32 1
     4    1   33 1
     5    2    3 1
     6    3    4 1
     7    3   34 1
     8    3   35 1
     9    4    5 1
    10    4   36 1
    11    4   37 1
    12    5    6 1
    13    6   11 ar
    14    6    7 ar
    15    7    8 ar
    16    7   38 1
    17    8    9 ar
    18    8   39 1
    19    9   21 1
    20    9   10 ar
    21   10   11 ar
    22   10   12 1
    23   11   40 1
    24   12   13 1
    25   12   17 1
    26   12   14 1
    27   14   15 2
    28   14   41 1
    29   15   16 1
    30   15   42 1
    31   16   17 1
    32   16   43 1
    33   16   44 1
    34   17   18 1
    35   17   19 1
    36   19   20 1
    37   19   21 1
    38   19   22 1
    39   21   45 1
    40   22   27 ar
    41   22   23 ar
    42   23   24 ar
    43   23   46 1
    44   24   25 ar
    45   24   30 1
    46   25   26 ar
    47   25   47 1
    48   26   27 ar
    49   26   29 1
    50   27   28 1
    51   28   48 1
@<TRIPOS>MOLECULE
ZINC20765275
   33    35     0     0     0
SMALL
USER_CHARGES
2-[(6-bromo-1H-benzimidazol-2-yl)sulfanyl]-N-(2,5-dichlorophenyl)acetamide
@<TRIPOS>ATOM
      1 C1          1.2060   -0.6807    0.0194 C.ar      1 <0>        -0.1175
      2 C2          0.1562   -0.0033   -0.5733 C.ar      1 <0>        -0.0732
      3 C3          0.1385    1.3785   -0.5784 C.ar      1 <0>        -0.0680
      4 C4          1.1775    2.0876    0.0131 C.ar      1 <0>         0.1795
      5 C5          2.2296    1.4050    0.6076 C.ar      1 <0>        -0.1175
      6 C6          2.2418    0.0223    0.6090 C.ar      1 <0>        -0.0083
      7 Cl1         3.5575   -0.8325    1.3517 Cl        1 <0>        -0.0510
      8 N1          1.1626    3.4873    0.0092 N.am      1 <0>        -0.6737
      9 C7          2.3187    4.1737    0.1036 C.2       1 <0>         0.5381
     10 O1          3.3777    3.5826    0.0909 O.2       1 <0>        -0.5005
     11 C8          2.2954    5.6756    0.2249 C.3       1 <0>        -0.1472
     12 S1          3.9914    6.2986    0.3322 S.3       1 <0>         0.0834
     13 C9          3.6749    8.0270    0.4621 C.2       1 <0>         0.2447
     14 N2          4.6332    8.9948    0.5728 N.pl3     1 <0>        -0.5907
     15 H1          5.6973    8.7162    0.5861 H         1 <0>         0.4598
     16 C10         3.9790   10.2135    0.6495 C.ar      1 <0>         0.0724
     17 C11         4.4056   11.5273    0.7703 C.ar      1 <0>        -0.0769
     18 C12         3.4784   12.5488    0.8219 C.ar      1 <0>        -0.0746
     19 C13         2.1208   12.2693    0.7536 C.ar      1 <0>        -0.0994
     20 C14         1.6802   10.9704    0.6335 C.ar      1 <0>        -0.0581
     21 C15         2.6061    9.9254    0.5800 C.ar      1 <0>         0.0697
     22 N3          2.4855    8.5769    0.4614 N.2       1 <0>        -0.4984
     23 Br1         4.0619   14.3399    0.9873 Br        1 <0>        -0.0378
     24 Cl2        -1.1764    2.2278   -1.3290 Cl        1 <0>        -0.0530
     25 H2          1.2178   -1.7606    0.0217 H         1 <0>         0.1461
     26 H3         -0.6506   -0.5548   -1.0331 H         1 <0>         0.1493
     27 H4          3.0382    1.9531    1.0679 H         1 <0>         0.1654
     28 H5          0.2074    4.0269   -0.0709 H         1 <0>         0.4455
     29 H6          1.8014    6.1071   -0.6581 H         1 <0>         0.1363
     30 H7          1.7416    5.9617    1.1312 H         1 <0>         0.1372
     31 H8          5.4609   11.7509    0.8243 H         1 <0>         0.1353
     32 H9          1.4047   13.0766    0.7945 H         1 <0>         0.1421
     33 H10         0.6222   10.7600    0.5805 H         1 <0>         0.1407
@<TRIPOS>BOND
     1    1    6 ar
     2    1    2 ar
     3    1   25 1
     4    2    3 ar
     5    2   26 1
     6    3    4 ar
     7    3   24 1
     8    4    5 ar
     9    4    8 1
    10    5    6 ar
    11    5   27 1
    12    6    7 1
    13    8    9 am
    14    8   28 1
    15    9   10 2
    16    9   11 1
    17   11   12 1
    18   11   29 1
    19   11   30 1
    20   12   13 1
    21   13   22 2
    22   13   14 1
    23   14   15 1
    24   14   16 1
    25   16   21 ar
    26   16   17 ar
    27   17   18 ar
    28   17   31 1
    29   18   19 ar
    30   18   23 1
    31   19   20 ar
    32   19   32 1
    33   20   21 ar
    34   20   33 1
    35   21   22 1
@<TRIPOS>MOLECULE
ZINC55407328
   42    43     0     0     0
SMALL
USER_CHARGES

@<TRIPOS>ATOM
      1 C1          0.2207    1.0298   -1.9158 C.3       1 <0>         0.0862
      2 N1          0.1597   -0.2890   -1.2809 N.am      1 <0>        -0.7304
      3 C2         -0.9988   -0.9777   -1.2678 C.2       1 <0>         0.5568
      4 O1         -1.9930   -0.5046   -1.7828 O.2       1 <0>        -0.5233
      5 C3         -1.0603   -2.3083   -0.6272 C.ar      1 <0>        -0.1125
      6 C4          0.0792   -2.8513   -0.0299 C.ar      1 <0>        -0.0906
      7 C5          0.0194   -4.0930    0.5678 C.ar      1 <0>        -0.0966
      8 C6         -1.1674   -4.8047    0.5776 C.ar      1 <0>        -0.0424
      9 C7         -2.3075   -4.2720   -0.0148 C.ar      1 <0>         0.1511
     10 C8         -2.2583   -3.0230   -0.6124 C.ar      1 <0>        -0.0523
     11 N2         -3.5059   -4.9958   -0.0029 N.am      1 <0>        -0.6742
     12 C9         -4.6829   -4.3487    0.1079 C.2       1 <0>         0.5127
     13 O2         -4.7100   -3.1361    0.1152 O.2       1 <0>        -0.5072
     14 C10        -5.9654   -5.1317    0.2228 C.3       1 <0>        -0.1385
     15 C11        -7.1453   -4.1641    0.3351 C.3       1 <0>        -0.1023
     16 C12        -8.4474   -4.9591    0.4517 C.3       1 <0>        -0.0817
     17 C13        -9.6096   -4.0061    0.5624 C.ar      1 <0>        -0.0647
     18 C14       -10.0291   -3.5694    1.8054 C.ar      1 <0>        -0.0998
     19 C15       -11.0951   -2.6958    1.9083 C.ar      1 <0>        -0.0955
     20 C16       -11.7427   -2.2573    0.7671 C.ar      1 <0>        -0.0361
     21 C17       -11.3223   -2.6942   -0.4776 C.ar      1 <0>        -0.0282
     22 C18       -10.2518   -3.5646   -0.5790 C.ar      1 <0>        -0.0963
     23 Cl1       -12.1343   -2.1454   -1.9105 Cl        1 <0>        -0.0469
     24 Cl2       -13.0821   -1.1604    0.8958 Cl        1 <0>        -0.0482
     25 Cl3        -1.2332   -6.3673    1.3311 Cl        1 <0>        -0.0539
     26 H1          1.2310    1.4291   -1.8276 H         1 <0>         0.0789
     27 H2         -0.0432    0.9384   -2.9694 H         1 <0>         0.0630
     28 H3         -0.4805    1.7032   -1.4227 H         1 <0>         0.0632
     29 H4          0.9531   -0.6666   -0.8699 H         1 <0>         0.4018
     30 H5          1.0073   -2.2992   -0.0362 H         1 <0>         0.1381
     31 H6          0.9017   -4.5113    1.0293 H         1 <0>         0.1467
     32 H7         -3.1437   -2.6057   -1.0690 H         1 <0>         0.1640
     33 H8         -3.4891   -5.9630   -0.0744 H         1 <0>         0.4155
     34 H9         -6.0905   -5.7560   -0.6619 H         1 <0>         0.1017
     35 H10        -5.9275   -5.7630    1.1106 H         1 <0>         0.1020
     36 H11        -7.0203   -3.5398    1.2198 H         1 <0>         0.0764
     37 H12        -7.1833   -3.5328   -0.5526 H         1 <0>         0.0768
     38 H13        -8.5724   -5.5834   -0.4330 H         1 <0>         0.0804
     39 H14        -8.4094   -5.5904    1.3395 H         1 <0>         0.0815
     40 H15        -9.5238   -3.9115    2.6964 H         1 <0>         0.1389
     41 H16       -11.4227   -2.3557    2.8795 H         1 <0>         0.1434
     42 H17        -9.9208   -3.9027   -1.5499 H         1 <0>         0.1425
@<TRIPOS>BOND
     1    1    2 1
     2    1   26 1
     3    1   27 1
     4    1   28 1
     5    2    3 am
     6    2   29 1
     7    3    4 2
     8    3    5 1
     9    5   10 ar
    10    5    6 ar
    11    6    7 ar
    12    6   30 1
    13    7    8 ar
    14    7   31 1
    15    8    9 ar
    16    8   25 1
    17    9   10 ar
    18    9   11 1
    19   10   32 1
    20   11   12 am
    21   11   33 1
    22   12   13 2
    23   12   14 1
    24   14   15 1
    25   14   34 1
    26   14   35 1
    27   15   16 1
    28   15   36 1
    29   15   37 1
    30   16   17 1
    31   16   38 1
    32   16   39 1
    33   17   22 ar
    34   17   18 ar
    35   18   19 ar
    36   18   40 1
    37   19   20 ar
    38   19   41 1
    39   20   21 ar
    40   20   24 1
    41   21   22 ar
    42   21   23 1
    43   22   42 1
@<TRIPOS>MOLECULE
ZINC08903072
   51    54     0     0     0
SMALL
USER_CHARGES
4-bromo-N-[[2-(4-isopropylphenyl)benzooxazol-5-yl]thiocarbamoyl]benzamide
@<TRIPOS>ATOM
      1 C1          2.6501    1.0696    1.3679 C.3       1 <0>        -0.1463
      2 C2          1.1914    0.8362    0.9694 C.3       1 <0>        -0.0622
      3 C3          0.8973    1.5688   -0.3412 C.3       1 <0>        -0.1465
      4 C4          0.2846    1.3608    2.0526 C.ar      1 <0>        -0.0479
      5 C5          0.3323    2.6984    2.4028 C.ar      1 <0>        -0.1193
      6 C6         -0.4986    3.1861    3.3903 C.ar      1 <0>        -0.0592
      7 C7         -1.3812    2.3246    4.0438 C.ar      1 <0>        -0.0399
      8 C8         -1.4205    0.9752    3.6893 C.ar      1 <0>        -0.0763
      9 C9         -0.5879    0.5015    2.6965 C.ar      1 <0>        -0.1208
     10 C10        -2.2707    2.8392    5.1064 C.2       1 <0>         0.2986
     11 N1         -2.3088    4.0815    5.5165 N.2       1 <0>        -0.4687
     12 C11        -3.2421    4.1894    6.4969 C.ar      1 <0>         0.0301
     13 C12        -3.7004    5.2532    7.2776 C.ar      1 <0>        -0.0606
     14 C13        -4.6849    5.0336    8.2233 C.ar      1 <0>         0.1244
     15 C14        -5.2184    3.7586    8.3988 C.ar      1 <0>        -0.0444
     16 C15        -4.7718    2.7033    7.6324 C.ar      1 <0>        -0.0852
     17 C16        -3.7853    2.9073    6.6796 C.ar      1 <0>         0.0244
     18 O1         -3.1561    2.0975    5.7979 O.3       1 <0>        -0.2055
     19 N2         -5.1474    6.0972    9.0082 N.pl3     1 <0>        -0.6183
     20 C17        -6.4707    6.2699    9.1968 C.2       1 <0>         0.5110
     21 S1         -7.5811    5.1287    8.5678 S.2       1 <0>        -0.4730
     22 N3         -6.9199    7.3409    9.8806 N.am      1 <0>        -0.6382
     23 C18        -8.2431    7.5136   10.0693 C.2       1 <0>         0.5353
     24 O2         -9.0314    6.7035    9.6228 O.2       1 <0>        -0.3936
     25 C19        -8.7354    8.6876   10.8187 C.ar      1 <0>        -0.1226
     26 C20        -7.8319    9.6171   11.3380 C.ar      1 <0>        -0.0840
     27 C21        -8.2980   10.7137   12.0322 C.ar      1 <0>        -0.0952
     28 C22        -9.6583   10.8880   12.2247 C.ar      1 <0>        -0.0638
     29 C23       -10.5591    9.9670   11.7168 C.ar      1 <0>        -0.0935
     30 C24       -10.1059    8.8693   11.0159 C.ar      1 <0>        -0.0454
     31 Br1       -10.2884   12.3905   13.1847 Br        1 <0>        -0.0330
     32 H1          2.8596    0.5477    2.3015 H         1 <0>         0.0574
     33 H2          3.3060    0.6902    0.5844 H         1 <0>         0.0612
     34 H3          2.8237    2.1374    1.5016 H         1 <0>         0.0585
     35 H4          1.0178   -0.2316    0.8356 H         1 <0>         0.0816
     36 H5          1.5532    1.1893   -1.1247 H         1 <0>         0.0612
     37 H6         -0.1419    1.4025   -0.6251 H         1 <0>         0.0576
     38 H7          1.0709    2.6365   -0.2075 H         1 <0>         0.0585
     39 H8          1.0185    3.3631    1.8992 H         1 <0>         0.1330
     40 H9         -0.4631    4.2313    3.6602 H         1 <0>         0.1398
     41 H10        -2.1009    0.3033    4.1914 H         1 <0>         0.1339
     42 H11        -0.6176   -0.5424    2.4210 H         1 <0>         0.1325
     43 H12        -3.2880    6.2422    7.1429 H         1 <0>         0.1406
     44 H13        -5.9869    3.5960    9.1400 H         1 <0>         0.1635
     45 H14        -5.1905    1.7179    7.7739 H         1 <0>         0.1453
     46 H15        -4.5154    6.7096    9.4161 H         1 <0>         0.4107
     47 H16        -6.2907    7.9875   10.2370 H         1 <0>         0.4106
     48 H17        -6.7706    9.4799   11.1924 H         1 <0>         0.1322
     49 H18        -7.6005   11.4357   12.4305 H         1 <0>         0.1434
     50 H19       -11.6188   10.1088   11.8696 H         1 <0>         0.1462
     51 H20       -10.8094    8.1518   10.6199 H         1 <0>         0.1519
@<TRIPOS>BOND
     1    1    2 1
     2    1   32 1
     3    1   33 1
     4    1   34 1
     5    2    3 1
     6    2    4 1
     7    2   35 1
     8    3   36 1
     9    3   37 1
    10    3   38 1
    11    4    9 ar
    12    4    5 ar
    13    5    6 ar
    14    5   39 1
    15    6    7 ar
    16    6   40 1
    17    7    8 ar
    18    7   10 1
    19    8    9 ar
    20    8   41 1
    21    9   42 1
    22   10   18 1
    23   10   11 2
    24   11   12 1
    25   12   17 ar
    26   12   13 ar
    27   13   14 ar
    28   13   43 1
    29   14   15 ar
    30   14   19 1
    31   15   16 ar
    32   15   44 1
    33   16   17 ar
    34   16   45 1
    35   17   18 1
    36   19   20 1
    37   19   46 1
    38   20   21 2
    39   20   22 1
    40   22   23 am
    41   22   47 1
    42   23   24 2
    43   23   25 1
    44   25   30 ar
    45   25   26 ar
    46   26   27 ar
    47   26   48 1
    48   27   28 ar
    49   27   49 1
    50   28   29 ar
    51   28   31 1
    52   29   30 ar
    53   29   50 1
    54   30   51 1
@<TRIPOS>MOLECULE
ZINC14269866
   54    57     0     0     0
SMALL
USER_CHARGES
N-[[2-chloro-5-(5-ethyl-1,3-benzoxazol-2-yl)phenyl]carbamothioyl]-4-ethyl-benzamide
@<TRIPOS>ATOM
      1 C1         -9.5104    2.4322   15.5105 C.3       1 <0>        -0.1486
      2 C2        -10.0958    2.5224   14.0998 C.3       1 <0>        -0.0928
      3 C3         -8.9804    2.7100   13.1040 C.ar      1 <0>        -0.0472
      4 C4         -8.3741    1.6052   12.5328 C.ar      1 <0>        -0.1222
      5 C5         -7.3531    1.7699   11.6199 C.ar      1 <0>        -0.0472
      6 C6         -6.9315    3.0549   11.2731 C.ar      1 <0>        -0.1438
      7 C7         -7.5434    4.1651   11.8580 C.ar      1 <0>        -0.0856
      8 C8         -8.5674    3.9863   12.7648 C.ar      1 <0>        -0.1231
      9 C9         -5.8384    3.2389   10.2959 C.2       1 <0>         0.5354
     10 O1         -5.3043    2.2705    9.7922 O.2       1 <0>        -0.3986
     11 N1         -5.4337    4.4807    9.9633 N.am      1 <0>        -0.6370
     12 C10        -4.4368    4.6485    9.0721 C.2       1 <0>         0.5103
     13 S1         -3.6843    3.2842    8.3624 S.2       1 <0>        -0.4682
     14 N2         -4.0321    5.8903    8.7395 N.pl3     1 <0>        -0.6230
     15 C11        -3.0778    6.0689    7.7314 C.ar      1 <0>         0.1346
     16 C12        -3.1782    5.3551    6.5478 C.ar      1 <0>        -0.0252
     17 C13        -2.2248    5.5369    5.5459 C.ar      1 <0>        -0.0159
     18 C14        -1.1723    6.4328    5.7438 C.ar      1 <0>        -0.0428
     19 C15        -1.0834    7.1430    6.9232 C.ar      1 <0>        -0.1046
     20 C16        -2.0288    6.9630    7.9173 C.ar      1 <0>        -0.0168
     21 Cl1        -1.9050    7.8555    9.4011 Cl        1 <0>        -0.0508
     22 C17        -2.3251    4.7788    4.2811 C.2       1 <0>         0.2949
     23 N3         -1.4866    4.8743    3.2805 N.2       1 <0>        -0.4641
     24 C18        -1.8896    4.0357    2.2917 C.ar      1 <0>         0.0292
     25 C19        -1.3872    3.7255    1.0253 C.ar      1 <0>        -0.0594
     26 C20        -2.0447    2.8093    0.2357 C.ar      1 <0>        -0.0808
     27 C21        -3.1955    2.1847    0.6939 C.ar      1 <0>        -0.0871
     28 C22        -3.7002    2.4767    1.9441 C.ar      1 <0>        -0.0882
     29 C23        -3.0549    3.4008    2.7512 C.ar      1 <0>         0.0097
     30 O2         -3.2923    3.8887    3.9891 O.3       1 <0>        -0.2019
     31 C24        -1.5074    2.4783   -1.1327 C.3       1 <0>        -0.0831
     32 C25        -2.1257    3.4226   -2.1656 C.3       1 <0>        -0.1491
     33 H1         -8.8268    1.5850   15.5667 H         1 <0>         0.0580
     34 H2         -8.9700    3.3508   15.7390 H         1 <0>         0.0568
     35 H3        -10.3172    2.2965   16.2307 H         1 <0>         0.0624
     36 H4        -10.7794    3.3696   14.0436 H         1 <0>         0.0767
     37 H5        -10.6362    1.6038   13.8713 H         1 <0>         0.0778
     38 H6         -8.7012    0.6118   12.8019 H         1 <0>         0.1342
     39 H7         -6.8812    0.9067   11.1742 H         1 <0>         0.1414
     40 H8         -7.2187    5.1617   11.5977 H         1 <0>         0.1218
     41 H9         -9.0449    4.8444   13.2144 H         1 <0>         0.1314
     42 H10        -5.8600    5.2537   10.3654 H         1 <0>         0.4103
     43 H11        -4.4023    6.6603    9.1988 H         1 <0>         0.4114
     44 H12        -3.9922    4.6606    6.4014 H         1 <0>         0.1572
     45 H13        -0.4300    6.5727    4.9719 H         1 <0>         0.1556
     46 H14        -0.2706    7.8383    7.0729 H         1 <0>         0.1537
     47 H15        -0.4889    4.2054    0.6659 H         1 <0>         0.1370
     48 H16        -3.7004    1.4647    0.0669 H         1 <0>         0.1416
     49 H17        -4.5964    1.9859    2.2937 H         1 <0>         0.1377
     50 H18        -1.7619    1.4485   -1.3837 H         1 <0>         0.0773
     51 H19        -0.4237    2.5958   -1.1358 H         1 <0>         0.0761
     52 H20        -3.2093    3.3051   -2.1626 H         1 <0>         0.0568
     53 H21        -1.8712    4.4523   -1.9147 H         1 <0>         0.0567
     54 H22        -1.7370    3.1831   -3.1554 H         1 <0>         0.0609
@<TRIPOS>BOND
     1    1    2 1
     2    1   33 1
     3    1   34 1
     4    1   35 1
     5    2    3 1
     6    2   36 1
     7    2   37 1
     8    3    8 ar
     9    3    4 ar
    10    4    5 ar
    11    4   38 1
    12    5    6 ar
    13    5   39 1
    14    6    7 ar
    15    6    9 1
    16    7    8 ar
    17    7   40 1
    18    8   41 1
    19    9   10 2
    20    9   11 am
    21   11   12 1
    22   11   42 1
    23   12   13 2
    24   12   14 1
    25   14   15 1
    26   14   43 1
    27   15   20 ar
    28   15   16 ar
    29   16   17 ar
    30   16   44 1
    31   17   18 ar
    32   17   22 1
    33   18   19 ar
    34   18   45 1
    35   19   20 ar
    36   19   46 1
    37   20   21 1
    38   22   30 1
    39   22   23 2
    40   23   24 1
    41   24   29 ar
    42   24   25 ar
    43   25   26 ar
    44   25   47 1
    45   26   27 ar
    46   26   31 1
    47   27   28 ar
    48   27   48 1
    49   28   29 ar
    50   28   49 1
    51   29   30 1
    52   31   32 1
    53   31   50 1
    54   31   51 1
    55   32   52 1
    56   32   53 1
    57   32   54 1
@<TRIPOS>MOLECULE
ZINC20314120
   60    63     0     0     0
SMALL
USER_CHARGES
3,4-dimethyl-N-[[4-(5-sec-butyl-1,3-benzoxazol-2-yl)phenyl]carbamothioyl]benzamide
@<TRIPOS>ATOM
      1 C1         -3.5577   -0.8276    1.7846 C.3       1 <0>        -0.1567
      2 C2         -2.2348   -0.1037    1.5259 C.3       1 <0>        -0.1174
      3 C3         -2.4189    0.9049    0.3903 C.3       1 <0>        -0.0503
      4 H1         -3.2400    1.5955    0.6329 H         1 <0>         0.0822
      5 C4         -2.7329    0.1591   -0.9082 C.3       1 <0>        -0.1490
      6 C5         -1.1526    1.7034    0.2174 C.ar      1 <0>        -0.0747
      7 C6          0.0334    1.0554   -0.0953 C.ar      1 <0>        -0.0862
      8 C7          1.2000    1.7727   -0.2624 C.ar      1 <0>        -0.0886
      9 C8          1.1916    3.1506   -0.1119 C.ar      1 <0>         0.0064
     10 C9         -0.0055    3.8103    0.2103 C.ar      1 <0>         0.0302
     11 C10        -1.1789    3.0706    0.3771 C.ar      1 <0>        -0.0607
     12 N1          0.2881    5.1336    0.2916 N.2       1 <0>        -0.4697
     13 C11         1.5631    5.2980    0.0420 C.2       1 <0>         0.2961
     14 O1          2.1413    4.1078   -0.2077 O.3       1 <0>        -0.2069
     15 C12         2.2640    6.5977    0.0361 C.ar      1 <0>        -0.0280
     16 C13         1.5601    7.7739    0.3055 C.ar      1 <0>        -0.0551
     17 C14         2.2180    8.9840    0.3045 C.ar      1 <0>        -0.1252
     18 C15         3.5794    9.0369    0.0248 C.ar      1 <0>         0.1566
     19 C16         4.2821    7.8683   -0.2491 C.ar      1 <0>        -0.0789
     20 C17         3.6313    6.6544   -0.2445 C.ar      1 <0>        -0.0707
     21 N2          4.2419   10.2653    0.0192 N.pl3     1 <0>        -0.6368
     22 C18         5.1439   10.5402   -0.9437 C.2       1 <0>         0.5194
     23 S1          5.3745    9.4443   -2.2386 S.2       1 <0>        -0.4928
     24 N3          5.8645   11.6777   -0.8872 N.am      1 <0>        -0.6517
     25 C19         6.7666   11.9526   -1.8501 C.2       1 <0>         0.5375
     26 O2          6.9302   11.1747   -2.7693 O.2       1 <0>        -0.4034
     27 C20         7.5566   13.1998   -1.7882 C.ar      1 <0>        -0.1389
     28 C21         7.3670   14.0986   -0.7365 C.ar      1 <0>        -0.0912
     29 C22         8.1118   15.2581   -0.6817 C.ar      1 <0>        -0.1225
     30 C23         9.0368   15.5375   -1.6724 C.ar      1 <0>        -0.0538
     31 C24         9.2257   14.6541   -2.7202 C.ar      1 <0>        -0.0895
     32 C25         8.4917   13.4876   -2.7839 C.ar      1 <0>        -0.0500
     33 C26        10.2356   14.9665   -3.7942 C.3       1 <0>        -0.1204
     34 C27         9.8425   16.8095   -1.6092 C.3       1 <0>        -0.1297
     35 H2         -3.4253   -1.5527    2.6011 H         1 <0>         0.0557
     36 H3         -3.8711   -1.3560    0.8721 H         1 <0>         0.0588
     37 H4         -4.3278   -0.0945    2.0666 H         1 <0>         0.0551
     38 H5         -1.9214    0.4247    2.4384 H         1 <0>         0.0644
     39 H6         -1.4647   -0.8368    1.2439 H         1 <0>         0.0657
     40 H7         -2.8653    0.8842   -1.7247 H         1 <0>         0.0574
     41 H8         -3.6572   -0.4237   -0.7819 H         1 <0>         0.0646
     42 H9         -1.9019   -0.5194   -1.1515 H         1 <0>         0.0586
     43 H10         0.0427   -0.0181   -0.2131 H         1 <0>         0.1405
     44 H11         2.1186    1.2613   -0.5098 H         1 <0>         0.1370
     45 H12        -2.1040    3.5699    0.6249 H         1 <0>         0.1358
     46 H13         0.5020    7.7340    0.5181 H         1 <0>         0.1459
     47 H14         1.6752    9.8932    0.5168 H         1 <0>         0.1371
     48 H15         5.3392    7.9127   -0.4659 H         1 <0>         0.1485
     49 H16         4.1774    5.7474   -0.4579 H         1 <0>         0.1390
     50 H17         4.0279   11.0092    0.8007 H         1 <0>         0.4329
     51 H18         5.7164   12.3818   -0.0552 H         1 <0>         0.4321
     52 H19         6.6419   13.8841    0.0347 H         1 <0>         0.1216
     53 H20         7.9695   15.9519    0.1337 H         1 <0>         0.1315
     54 H21         8.6401   12.7988   -3.6024 H         1 <0>         0.1401
     55 H22        10.2446   14.1546   -4.5363 H         1 <0>         0.0711
     56 H23        11.2340   15.0613   -3.3423 H         1 <0>         0.0751
     57 H24         9.9653   15.9116   -4.2879 H         1 <0>         0.0750
     58 H25        10.5196   16.8580   -2.4748 H         1 <0>         0.0750
     59 H26        10.4325   16.8241   -0.6809 H         1 <0>         0.0761
     60 H27         9.1635   17.6748   -1.6258 H         1 <0>         0.0761
@<TRIPOS>BOND
     1    1    2 1
     2    1   35 1
     3    1   36 1
     4    1   37 1
     5    2    3 1
     6    2   38 1
     7    2   39 1
     8    3    4 1
     9    3    5 1
    10    3    6 1
    11    5   40 1
    12    5   41 1
    13    5   42 1
    14    6   11 ar
    15    6    7 ar
    16    7    8 ar
    17    7   43 1
    18    8    9 ar
    19    8   44 1
    20    9   14 1
    21    9   10 ar
    22   10   11 ar
    23   10   12 1
    24   11   45 1
    25   12   13 2
    26   13   14 1
    27   13   15 1
    28   15   20 ar
    29   15   16 ar
    30   16   17 ar
    31   16   46 1
    32   17   18 ar
    33   17   47 1
    34   18   19 ar
    35   18   21 1
    36   19   20 ar
    37   19   48 1
    38   20   49 1
    39   21   22 1
    40   21   50 1
    41   22   23 2
    42   22   24 1
    43   24   25 am
    44   24   51 1
    45   25   26 2
    46   25   27 1
    47   27   32 ar
    48   27   28 ar
    49   28   29 ar
    50   28   52 1
    51   29   30 ar
    52   29   53 1
    53   30   31 ar
    54   30   34 1
    55   31   32 ar
    56   31   33 1
    57   32   54 1
    58   33   55 1
    59   33   56 1
    60   33   57 1
    61   34   58 1
    62   34   59 1
    63   34   60 1
@<TRIPOS>MOLECULE
ZINC36685760
   64    67     0     0     0
SMALL
USER_CHARGES

@<TRIPOS>ATOM
      1 C1          0.1919    1.6706    0.2388 C.3       1 <0>        -0.1173
      2 C2          0.1499    0.1644    0.2178 C.ar      1 <0>        -0.1053
      3 C3          0.1598   -0.5083   -0.9859 C.ar      1 <0>        -0.0940
      4 C4          0.1213   -1.9016   -1.0047 C.ar      1 <0>        -0.0488
      5 C5          0.0730   -2.6119    0.1942 C.ar      1 <0>        -0.0986
      6 C6          0.0633   -1.9352    1.3951 C.ar      1 <0>        -0.1115
      7 C7          0.1070   -0.5458    1.4115 C.ar      1 <0>         0.1419
      8 N1          0.1024    0.1381    2.6306 N.am      1 <0>        -0.6669
      9 C8         -0.6035   -0.3454    3.6719 C.2       1 <0>         0.5618
     10 O1         -1.1655   -1.4199    3.5790 O.2       1 <0>        -0.5149
     11 C9         -0.6945    0.4284    4.9237 C.ar      1 <0>        -0.1474
     12 C10        -0.0536    1.6669    5.0299 C.ar      1 <0>        -0.0635
     13 C11        -0.1404    2.3842    6.1949 C.ar      1 <0>        -0.1078
     14 C12        -0.8656    1.8806    7.2723 C.ar      1 <0>        -0.0556
     15 C13        -1.5051    0.6472    7.1694 C.ar      1 <0>        -0.1433
     16 C14        -1.4267   -0.0720    6.0050 C.ar      1 <0>        -0.0320
     17 S1         -0.9739    2.8050    8.7684 S.3       1 <0>        -0.1015
     18 C15        -1.9960    1.7691    9.8514 C.3       1 <0>        -0.1488
     19 C16         0.1314   -2.6274   -2.2981 C.ar      1 <0>        -0.0555
     20 C17         0.1850   -1.9173   -3.4969 C.ar      1 <0>        -0.0937
     21 C18         0.1942   -2.5940   -4.6977 C.ar      1 <0>        -0.1230
     22 C19         0.1496   -3.9833   -4.7143 C.ar      1 <0>         0.1486
     23 C20         0.0961   -4.6932   -3.5207 C.ar      1 <0>        -0.1126
     24 C21         0.0930   -4.0208   -2.3170 C.ar      1 <0>        -0.0893
     25 C22         0.0473   -6.1993   -3.5420 C.3       1 <0>        -0.1171
     26 N2          0.1581   -4.6673   -5.9332 N.am      1 <0>        -0.6644
     27 C23        -0.2855   -4.0584   -7.0507 C.2       1 <0>         0.5611
     28 O2         -0.7865   -2.9523   -6.9825 O.2       1 <0>        -0.5124
     29 C24        -0.1635   -4.7332   -8.3560 C.ar      1 <0>        -0.1483
     30 C25         0.4071   -6.0076   -8.4353 C.ar      1 <0>        -0.0634
     31 C26         0.5188   -6.6327   -9.6502 C.ar      1 <0>        -0.1077
     32 C27         0.0651   -5.9997  -10.8051 C.ar      1 <0>        -0.0552
     33 C28        -0.5037   -4.7303  -10.7293 C.ar      1 <0>        -0.1434
     34 C29        -0.6233   -4.1026   -9.5165 C.ar      1 <0>        -0.0315
     35 S2          0.2115   -6.8059  -12.3650 S.3       1 <0>        -0.1011
     36 C30        -0.4978   -5.6200  -13.5402 C.3       1 <0>        -0.1489
     37 H1          1.2291    2.0049    0.2636 H         1 <0>         0.0729
     38 H2         -0.2941    2.0602   -0.6556 H         1 <0>         0.0737
     39 H3         -0.3289    2.0363    1.1238 H         1 <0>         0.0638
     40 H4          0.1969    0.0439   -1.9133 H         1 <0>         0.1301
     41 H5          0.0428   -3.6914    0.1820 H         1 <0>         0.1284
     42 H6          0.0258   -2.4849    2.3239 H         1 <0>         0.1420
     43 H7          0.6073    0.9607    2.7271 H         1 <0>         0.4098
     44 H8          0.5094    2.0575    4.1952 H         1 <0>         0.1312
     45 H9          0.3543    3.3407    6.2775 H         1 <0>         0.1374
     46 H10        -2.0663    0.2591    8.0065 H         1 <0>         0.1327
     47 H11        -1.9263   -1.0261    5.9243 H         1 <0>         0.1418
     48 H12        -2.1215    2.2636   10.8146 H         1 <0>         0.1134
     49 H13        -2.9724    1.6158    9.3918 H         1 <0>         0.0875
     50 H14        -1.5084    0.8055    9.9985 H         1 <0>         0.0875
     51 H15         0.2190   -0.8379   -3.4846 H         1 <0>         0.1285
     52 H16         0.2358   -2.0444   -5.6265 H         1 <0>         0.1478
     53 H17         0.0562   -4.5730   -1.3895 H         1 <0>         0.1301
     54 H18         1.0623   -6.5960   -3.5211 H         1 <0>         0.0731
     55 H19        -0.5008   -6.5574   -2.6705 H         1 <0>         0.0746
     56 H20        -0.4549   -6.5337   -4.4498 H         1 <0>         0.0625
     57 H21         0.4832   -5.5803   -5.9748 H         1 <0>         0.4103
     58 H22         0.7597   -6.4986   -7.5403 H         1 <0>         0.1310
     59 H23         0.9594   -7.6169   -9.7120 H         1 <0>         0.1376
     60 H24        -0.8542   -4.2418  -11.6265 H         1 <0>         0.1330
     61 H25        -1.0684   -3.1204   -9.4578 H         1 <0>         0.1421
     62 H26        -1.5367   -5.4232  -13.2755 H         1 <0>         0.0876
     63 H27         0.0688   -4.6895  -13.5041 H         1 <0>         0.0876
     64 H28        -0.4517   -6.0345  -14.5472 H         1 <0>         0.1134
@<TRIPOS>BOND
     1    1    2 1
     2    1   37 1
     3    1   38 1
     4    1   39 1
     5    2    7 ar
     6    2    3 ar
     7    3    4 ar
     8    3   40 1
     9    4    5 ar
    10    4   19 1
    11    5    6 ar
    12    5   41 1
    13    6    7 ar
    14    6   42 1
    15    7    8 1
    16    8    9 am
    17    8   43 1
    18    9   10 2
    19    9   11 1
    20   11   16 ar
    21   11   12 ar
    22   12   13 ar
    23   12   44 1
    24   13   14 ar
    25   13   45 1
    26   14   15 ar
    27   14   17 1
    28   15   16 ar
    29   15   46 1
    30   16   47 1
    31   17   18 1
    32   18   48 1
    33   18   49 1
    34   18   50 1
    35   19   24 ar
    36   19   20 ar
    37   20   21 ar
    38   20   51 1
    39   21   22 ar
    40   21   52 1
    41   22   23 ar
    42   22   26 1
    43   23   24 ar
    44   23   25 1
    45   24   53 1
    46   25   54 1
    47   25   55 1
    48   25   56 1
    49   26   27 am
    50   26   57 1
    51   27   28 2
    52   27   29 1
    53   29   34 ar
    54   29   30 ar
    55   30   31 ar
    56   30   58 1
    57   31   32 ar
    58   31   59 1
    59   32   33 ar
    60   32   35 1
    61   33   34 ar
    62   33   60 1
    63   34   61 1
    64   35   36 1
    65   36   62 1
    66   36   63 1
    67   36   64 1
@<TRIPOS>MOLECULE
ZINC58845769
   64    68     0     0     0
SMALL
USER_CHARGES

@<TRIPOS>ATOM
      1 C1          0.2753    1.4484   -0.0598 C.3       1 <0>        -0.1137
      2 C2          0.3621   -0.0551   -0.1124 C.ar      1 <0>        -0.1035
      3 C3          0.5418   -0.6954   -1.3231 C.ar      1 <0>        -0.0983
      4 C4          0.6211   -2.0748   -1.3723 C.ar      1 <0>        -0.1308
      5 C5          0.5213   -2.8183   -0.2104 C.ar      1 <0>        -0.0950
      6 C6          0.3421   -2.1847    1.0033 C.ar      1 <0>        -0.1703
      7 C7          0.2673   -0.7984    1.0571 C.ar      1 <0>         0.1566
      8 N1          0.0913   -0.1539    2.2837 N.pl3     1 <0>        -1.0555
      9 S1          0.8080   -0.7602    3.6479 S.o2      1 <0>         2.6926
     10 O1          0.5667    0.1801    4.6856 O.2       1 <0>        -0.9550
     11 O2          0.4101   -2.1209    3.7452 O.2       1 <0>        -0.9526
     12 C8          2.5472   -0.7631    3.3653 C.ar      1 <0>        -0.7261
     13 C9          3.1516   -1.8697    2.7969 C.ar      1 <0>         0.0304
     14 C10         4.5148   -1.8716    2.5834 C.ar      1 <0>        -0.2113
     15 C11         5.2786   -0.7639    2.9359 C.ar      1 <0>         0.2810
     16 C12         4.6727    0.3514    3.4938 C.ar      1 <0>        -0.1653
     17 C13         3.3015    0.3410    3.7067 C.ar      1 <0>         0.0321
     18 C14         5.4518    1.5726    3.8479 C.3       1 <0>        -0.0089
     19 H1          4.8894    2.4472    3.5210 H         1 <0>         0.0895
     20 C15         5.6839    1.6870    5.3328 C.2       1 <0>        -0.1622
     21 C16         6.8671    2.1962    5.5685 C.2       1 <0>        -0.1479
     22 C17         7.5965    2.4888    4.2758 C.3       1 <0>        -0.0995
     23 C18         6.8455    1.6373    3.2263 C.3       1 <0>        -0.0906
     24 H2          6.8225    2.1458    2.2624 H         1 <0>         0.0930
     25 C19         7.5336    0.2914    3.1296 C.3       1 <0>         0.2088
     26 H3          8.3292    0.3617    2.3878 H         1 <0>         0.0891
     27 N2          6.6532   -0.7877    2.7322 N.pl3     1 <0>        -0.7199
     28 C20         8.1538   -0.0264    4.4658 C.ar      1 <0>        -0.1415
     29 C21         7.3707   -0.5310    5.4875 C.ar      1 <0>        -0.0413
     30 C22         7.9367   -0.8227    6.7135 C.ar      1 <0>        -0.1589
     31 C23         9.2920   -0.6094    6.9189 C.ar      1 <0>         0.1393
     32 C24        10.0756   -0.1035    5.8919 C.ar      1 <0>        -0.2151
     33 C25         9.5059    0.1817    4.6661 C.ar      1 <0>        -0.0701
     34 O3          9.8511   -0.8951    8.1242 O.3       1 <0>        -0.3107
     35 C26        11.2226   -0.5369    8.3044 C.3       1 <0>         0.0750
     36 C27        11.4634   -0.1605    9.7677 C.3       1 <0>        -0.1523
     37 C28        12.1131   -1.7234    7.9299 C.3       1 <0>        -0.1767
     38 H4          1.2738    1.8657    0.0704 H         1 <0>         0.0729
     39 H5         -0.1555    1.8203   -0.9894 H         1 <0>         0.0705
     40 H6         -0.3552    1.7468    0.7778 H         1 <0>         0.0631
     41 H7          0.6201   -0.1178   -2.2323 H         1 <0>         0.1258
     42 H8          0.7609   -2.5730   -2.3203 H         1 <0>         0.1244
     43 H9          0.5833   -3.8957   -0.2524 H         1 <0>         0.1291
     44 H10         0.2639   -2.7658    1.9103 H         1 <0>         0.1599
     45 H11        -0.4507    0.6488    2.3364 H         1 <0>         0.4246
     46 H12         2.5587   -2.7294    2.5214 H         1 <0>         0.1386
     47 H13         4.9899   -2.7352    2.1419 H         1 <0>         0.1314
     48 H14         2.8213    1.2024    4.1469 H         1 <0>         0.1362
     49 H15         4.9762    1.3912    6.0932 H         1 <0>         0.1272
     50 H16         7.2685    2.3824    6.5538 H         1 <0>         0.1230
     51 H17         7.5364    3.5503    4.0356 H         1 <0>         0.0797
     52 H18         8.6368    2.1705    4.3442 H         1 <0>         0.0840
     53 H19         7.0446   -1.5759    2.3243 H         1 <0>         0.4047
     54 H20         6.3156   -0.6968    5.3272 H         1 <0>         0.1257
     55 H21         7.3244   -1.2161    7.5115 H         1 <0>         0.1267
     56 H22        11.1310    0.0634    6.0493 H         1 <0>         0.1285
     57 H23        10.1163    0.5714    3.8650 H         1 <0>         0.1231
     58 H24        11.4629    0.3134    7.6662 H         1 <0>         0.0759
     59 H25        11.2230   -1.0108   10.4059 H         1 <0>         0.0676
     60 H26        12.5096    0.1128    9.9052 H         1 <0>         0.0770
     61 H27        10.8290    0.6848   10.0345 H         1 <0>         0.0645
     62 H28        11.8728   -2.5737    8.5681 H         1 <0>         0.0678
     63 H29        11.9416   -1.9916    6.8874 H         1 <0>         0.0608
     64 H30        13.1593   -1.4501    8.0674 H         1 <0>         0.0727
@<TRIPOS>BOND
     1    1    2 1
     2    1   38 1
     3    1   39 1
     4    1   40 1
     5    2    7 ar
     6    2    3 ar
     7    3    4 ar
     8    3   41 1
     9    4    5 ar
    10    4   42 1
    11    5    6 ar
    12    5   43 1
    13    6    7 ar
    14    6   44 1
    15    7    8 1
    16    8    9 1
    17    8   45 1
    18    9   10 2
    19    9   11 2
    20    9   12 1
    21   12   17 ar
    22   12   13 ar
    23   13   14 ar
    24   13   46 1
    25   14   15 ar
    26   14   47 1
    27   15   27 1
    28   15   16 ar
    29   16   17 ar
    30   16   18 1
    31   17   48 1
    32   18   19 1
    33   18   23 1
    34   18   20 1
    35   20   21 2
    36   20   49 1
    37   21   22 1
    38   21   50 1
    39   22   23 1
    40   22   51 1
    41   22   52 1
    42   23   24 1
    43   23   25 1
    44   25   26 1
    45   25   27 1
    46   25   28 1
    47   27   53 1
    48   28   33 ar
    49   28   29 ar
    50   29   30 ar
    51   29   54 1
    52   30   31 ar
    53   30   55 1
    54   31   32 ar
    55   31   34 1
    56   32   33 ar
    57   32   56 1
    58   33   57 1
    59   34   35 1
    60   35   36 1
    61   35   37 1
    62   35   58 1
    63   36   59 1
    64   36   60 1
    65   36   61 1
    66   37   62 1
    67   37   63 1
    68   37   64 1
@<TRIPOS>MOLECULE
ZINC03049183
   42    44     0     0     0
SMALL
USER_CHARGES
N-[4-(2,4-dichlorophenyl)thiazol-2-yl]-2-(2,5-dimethylphenyl)sulfanyl-acetamide
@<TRIPOS>ATOM
      1 C1          3.1269   -1.0747   -3.3640 C.3       1 <0>        -0.1168
      2 C2          1.9034   -0.2346   -3.6255 C.ar      1 <0>        -0.0717
      3 C3          1.5130    0.0315   -4.9255 C.ar      1 <0>        -0.1189
      4 C4          0.3913    0.8022   -5.1702 C.ar      1 <0>        -0.0974
      5 C5         -0.3472    1.3037   -4.1165 C.ar      1 <0>        -0.0668
      6 C6          0.0449    1.0429   -2.8092 C.ar      1 <0>        -0.1022
      7 C7          1.1732    0.2681   -2.5671 C.ar      1 <0>        -0.1330
      8 S1         -0.8901    1.6867   -1.4616 S.3       1 <0>        -0.0149
      9 C8         -0.0127    1.0858    0.0080 C.3       1 <0>        -0.1567
     10 C9         -0.7181    1.5718    1.2479 C.2       1 <0>         0.5378
     11 O1         -1.7145    2.2562    1.1498 O.2       1 <0>        -0.4743
     12 N1         -0.2416    1.2460    2.4658 N.am      1 <0>        -0.6044
     13 C10        -0.8920    1.6941    3.6090 C.2       1 <0>         0.3132
     14 N2         -0.5925    1.4833    4.8772 N.2       1 <0>        -0.5076
     15 C11        -1.3278    1.9966    5.8520 C.2       1 <0>         0.1086
     16 C12        -2.4252    2.7494    5.5391 C.2       1 <0>        -0.2294
     17 S2         -2.3608    2.7025    3.7528 S.3       1 <0>         0.1295
     18 C13        -0.9677    1.7515    7.2698 C.ar      1 <0>        -0.0106
     19 C14        -1.7446    2.2932    8.2924 C.ar      1 <0>        -0.0813
     20 C15        -1.4087    2.0575    9.6098 C.ar      1 <0>        -0.1054
     21 C16        -0.2955    1.2939    9.9175 C.ar      1 <0>        -0.0206
     22 C17         0.4832    0.7579    8.9066 C.ar      1 <0>        -0.1071
     23 C18         0.1528    0.9829    7.5844 C.ar      1 <0>         0.0001
     24 Cl1         1.1303    0.3108    6.3170 Cl        1 <0>        -0.0240
     25 Cl2         0.1248    1.0071   11.5773 Cl        1 <0>        -0.0545
     26 C19        -1.5733    2.1380   -4.3841 C.3       1 <0>        -0.1199
     27 H1          2.8400   -2.1244   -3.3000 H         1 <0>         0.0728
     28 H2          3.8396   -0.9418   -4.1780 H         1 <0>         0.0698
     29 H3          3.5860   -0.7656   -2.4250 H         1 <0>         0.0659
     30 H4          2.0859   -0.3634   -5.7515 H         1 <0>         0.1259
     31 H5          0.0897    1.0083   -6.1866 H         1 <0>         0.1296
     32 H6          1.4782    0.0594   -1.5523 H         1 <0>         0.1203
     33 H7          0.0021   -0.0041    0.0020 H         1 <0>         0.1276
     34 H8          1.0099    1.4631    0.0003 H         1 <0>         0.1278
     35 H9          0.5554    0.6986    2.5442 H         1 <0>         0.4287
     36 H10        -3.1347    3.2377    6.1907 H         1 <0>         0.2014
     37 H11        -2.6104    2.8931    8.0540 H         1 <0>         0.1451
     38 H12        -2.0131    2.4730   10.4026 H         1 <0>         0.1448
     39 H13         1.3508    0.1633    9.1518 H         1 <0>         0.1462
     40 H14        -1.2902    3.1884   -4.4528 H         1 <0>         0.0772
     41 H15        -2.0297    1.8226   -5.3224 H         1 <0>         0.0733
     42 H16        -2.2869    2.0065   -3.5708 H         1 <0>         0.0724
@<TRIPOS>BOND
     1    1    2 1
     2    1   27 1
     3    1   28 1
     4    1   29 1
     5    2    7 ar
     6    2    3 ar
     7    3    4 ar
     8    3   30 1
     9    4    5 ar
    10    4   31 1
    11    5    6 ar
    12    5   26 1
    13    6    7 ar
    14    6    8 1
    15    7   32 1
    16    8    9 1
    17    9   10 1
    18    9   33 1
    19    9   34 1
    20   10   11 2
    21   10   12 am
    22   12   13 1
    23   12   35 1
    24   13   17 1
    25   13   14 2
    26   14   15 1
    27   15   16 2
    28   15   18 1
    29   16   17 1
    30   16   36 1
    31   18   23 ar
    32   18   19 ar
    33   19   20 ar
    34   19   37 1
    35   20   21 ar
    36   20   38 1
    37   21   22 ar
    38   21   25 1
    39   22   23 ar
    40   22   39 1
    41   23   24 1
    42   26   40 1
    43   26   41 1
    44   26   42 1
@<TRIPOS>MOLECULE
ZINC03085204
   40    42     0     0     0
SMALL
USER_CHARGES
N-(4-bromophenyl)-4-[(4-bromophenyl)sulfanylmethyl]benzamide
@<TRIPOS>ATOM
      1 C1          3.6431   -6.2637   -0.4897 C.ar      1 <0>        -0.1050
      2 C2          3.6363   -4.8887   -0.3786 C.ar      1 <0>        -0.0526
      3 C3          2.4239   -4.2074   -0.2578 C.ar      1 <0>        -0.1305
      4 C4          1.2260   -4.9239   -0.2449 C.ar      1 <0>        -0.0829
      5 C5          1.2466   -6.2982   -0.3630 C.ar      1 <0>        -0.1052
      6 C6          2.4518   -6.9674   -0.4820 C.ar      1 <0>        -0.0484
      7 C7          2.4670   -8.4694   -0.6042 C.3       1 <0>        -0.0775
      8 S1          2.5653   -9.2096    1.0490 S.3       1 <0>        -0.0865
      9 C8          2.5739  -10.9442    0.7395 C.ar      1 <0>        -0.0739
     10 C9          2.5057  -11.4191   -0.5647 C.ar      1 <0>        -0.1302
     11 C10         2.5179  -12.7790   -0.8041 C.ar      1 <0>        -0.0687
     12 C11         2.5864  -13.6687    0.2535 C.ar      1 <0>        -0.0974
     13 C12         2.6491  -13.1990    1.5536 C.ar      1 <0>        -0.0694
     14 C13         2.6430  -11.8402    1.7994 C.ar      1 <0>        -0.0943
     15 Br1         2.5949  -15.5303   -0.0786 Br        1 <0>        -0.0445
     16 C14         2.4091   -2.7342   -0.1379 C.2       1 <0>         0.5610
     17 O1          3.4542   -2.1133   -0.1444 O.2       1 <0>        -0.5083
     18 N1          1.2369   -2.0793   -0.0214 N.am      1 <0>        -0.6703
     19 C15         1.2143   -0.6807   -0.0192 C.ar      1 <0>         0.1627
     20 C16         0.2689   -0.0013    0.7382 C.ar      1 <0>        -0.1399
     21 C17         0.2487    1.3795    0.7381 C.ar      1 <0>        -0.0690
     22 C18         1.1690    2.0862   -0.0156 C.ar      1 <0>        -0.1064
     23 C19         2.1119    1.4120   -0.7712 C.ar      1 <0>        -0.0687
     24 C20         2.1369    0.0312   -0.7749 C.ar      1 <0>        -0.1158
     25 Br2         1.1381    3.9769   -0.0131 Br        1 <0>        -0.0479
     26 H1          4.5804   -6.7921   -0.5832 H         1 <0>         0.1367
     27 H2          4.5668   -4.3405   -0.3855 H         1 <0>         0.1429
     28 H3          0.2849   -4.4031   -0.1476 H         1 <0>         0.1303
     29 H4          0.3203   -6.8534   -0.3580 H         1 <0>         0.1356
     30 H5          1.5542   -8.8029   -1.0979 H         1 <0>         0.1035
     31 H6          3.3315   -8.7773   -1.1922 H         1 <0>         0.1038
     32 H7          2.4478  -10.7253   -1.3903 H         1 <0>         0.1319
     33 H8          2.4694  -13.1487   -1.8177 H         1 <0>         0.1372
     34 H9          2.7031  -13.8959    2.3769 H         1 <0>         0.1399
     35 H10         2.6923  -11.4743    2.8143 H         1 <0>         0.1383
     36 H11         0.4089   -2.5779    0.0609 H         1 <0>         0.4130
     37 H12        -0.4494   -0.5524    1.3270 H         1 <0>         0.1363
     38 H13        -0.4891    1.9083    1.3234 H         1 <0>         0.1385
     39 H14         2.8291    1.9661   -1.3586 H         1 <0>         0.1378
     40 H15         2.8733   -0.4945   -1.3645 H         1 <0>         0.1437
@<TRIPOS>BOND
     1    1    6 ar
     2    1    2 ar
     3    1   26 1
     4    2    3 ar
     5    2   27 1
     6    3    4 ar
     7    3   16 1
     8    4    5 ar
     9    4   28 1
    10    5    6 ar
    11    5   29 1
    12    6    7 1
    13    7    8 1
    14    7   30 1
    15    7   31 1
    16    8    9 1
    17    9   14 ar
    18    9   10 ar
    19   10   11 ar
    20   10   32 1
    21   11   12 ar
    22   11   33 1
    23   12   13 ar
    24   12   15 1
    25   13   14 ar
    26   13   34 1
    27   14   35 1
    28   16   17 2
    29   16   18 am
    30   18   19 1
    31   18   36 1
    32   19   24 ar
    33   19   20 ar
    34   20   21 ar
    35   20   37 1
    36   21   22 ar
    37   21   38 1
    38   22   23 ar
    39   22   25 1
    40   23   24 ar
    41   23   39 1
    42   24   40 1
@<TRIPOS>MOLECULE
ZINC32117944
   48    51     0     0     0
SMALL
USER_CHARGES
N-(3-chloro-4-methyl-phenyl)-4-(8-quinolylsulfanylmethyl)benzamide
@<TRIPOS>ATOM
      1 C1         14.8156    8.0824   -1.2752 C.3       1 <0>        -0.1178
      2 C2         13.4927    7.3608   -1.2634 C.ar      1 <0>        -0.0908
      3 C3         12.5668    7.6008   -2.2621 C.ar      1 <0>        -0.0895
      4 C4         11.3557    6.9373   -2.2572 C.ar      1 <0>        -0.1367
      5 C5         11.0626    6.0362   -1.2414 C.ar      1 <0>         0.1552
      6 C6         11.9937    5.7967   -0.2396 C.ar      1 <0>        -0.1119
      7 C7         13.2067    6.4596   -0.2529 C.ar      1 <0>        -0.0193
      8 Cl1        14.3718    6.1618    0.9991 Cl        1 <0>        -0.0618
      9 N1          9.8345    5.3673   -1.2309 N.am      1 <0>        -0.6807
     10 C8          9.2306    5.0855   -0.0594 C.2       1 <0>         0.5613
     11 O1          9.7916    5.3365    0.9894 O.2       1 <0>        -0.5145
     12 C9          7.8862    4.4711   -0.0500 C.ar      1 <0>        -0.1288
     13 C10         7.2580    4.1779    1.1616 C.ar      1 <0>        -0.0540
     14 C11         6.0034    3.6041    1.1633 C.ar      1 <0>        -0.1059
     15 C12         5.3680    3.3192   -0.0323 C.ar      1 <0>        -0.0446
     16 C13         5.9875    3.6021   -1.2367 C.ar      1 <0>        -0.1065
     17 C14         7.2395    4.1811   -1.2526 C.ar      1 <0>        -0.0830
     18 C15         3.9976    2.6924   -0.0226 C.3       1 <0>        -0.0972
     19 S1          2.7364    3.9962   -0.0113 S.3       1 <0>        -0.0378
     20 C16         1.2112    3.1138   -0.0008 C.ar      1 <0>        -0.0698
     21 C17         1.2061    1.7348   -0.0026 C.ar      1 <0>        -0.1221
     22 C18         0.0088    1.0265    0.0056 C.ar      1 <0>        -0.0959
     23 C19        -1.1894    1.6747    0.0095 C.ar      1 <0>        -0.1030
     24 C20        -1.2266    3.0784    0.0168 C.ar      1 <0>        -0.0866
     25 C21        -0.0162    3.8135    0.0090 C.ar      1 <0>         0.1419
     26 N2         -0.0480    5.1484    0.0115 N.ar      1 <0>        -0.4659
     27 C22        -1.1836    5.8035    0.0202 C.ar      1 <0>         0.1329
     28 C23        -2.4102    5.1428    0.0283 C.ar      1 <0>        -0.1695
     29 C24        -2.4488    3.7776    0.0267 C.ar      1 <0>        -0.0587
     30 H1         14.8606    8.7514   -2.1472 H         1 <0>         0.0704
     31 H2         15.6330    7.3486   -1.3334 H         1 <0>         0.0748
     32 H3         14.9188    8.6739   -0.3536 H         1 <0>         0.0748
     33 H4         12.7931    8.3044   -3.0496 H         1 <0>         0.1368
     34 H5         10.6353    7.1219   -3.0403 H         1 <0>         0.1328
     35 H6         11.7707    5.0931    0.5489 H         1 <0>         0.1497
     36 H7          9.3614    5.0712   -2.1788 H         1 <0>         0.4352
     37 H8          7.7528    4.4001    2.0955 H         1 <0>         0.1415
     38 H9          5.5161    3.3771    2.1000 H         1 <0>         0.1354
     39 H10         5.4878    3.3732   -2.1664 H         1 <0>         0.1345
     40 H11         7.7202    4.4055   -2.1934 H         1 <0>         0.1296
     41 H12         3.8730    2.0695   -0.9206 H         1 <0>         0.1025
     42 H13         3.8867    2.0672    0.8756 H         1 <0>         0.1026
     43 H14         2.1432    1.1980   -0.0101 H         1 <0>         0.1300
     44 H15         0.0294   -0.0533    0.0044 H         1 <0>         0.1320
     45 H16        -2.1097    1.1096    0.0110 H         1 <0>         0.1333
     46 H17        -1.1679    6.8833    0.0220 H         1 <0>         0.1623
     47 H18        -3.3295    5.7096    0.0361 H         1 <0>         0.1407
     48 H19        -3.3905    3.2490    0.0324 H         1 <0>         0.1420
@<TRIPOS>BOND
     1    1    2 1
     2    1   30 1
     3    1   31 1
     4    1   32 1
     5    2    7 ar
     6    2    3 ar
     7    3    4 ar
     8    3   33 1
     9    4    5 ar
    10    4   34 1
    11    5    6 ar
    12    5    9 1
    13    6    7 ar
    14    6   35 1
    15    7    8 1
    16    9   10 am
    17    9   36 1
    18   10   11 2
    19   10   12 1
    20   12   17 ar
    21   12   13 ar
    22   13   14 ar
    23   13   37 1
    24   14   15 ar
    25   14   38 1
    26   15   16 ar
    27   15   18 1
    28   16   17 ar
    29   16   39 1
    30   17   40 1
    31   18   19 1
    32   18   41 1
    33   18   42 1
    34   19   20 1
    35   20   25 ar
    36   20   21 ar
    37   21   22 ar
    38   21   43 1
    39   22   23 ar
    40   22   44 1
    41   23   24 ar
    42   23   45 1
    43   24   29 ar
    44   24   25 ar
    45   25   26 ar
    46   26   27 ar
    47   27   28 ar
    48   27   46 1
    49   28   29 ar
    50   28   47 1
    51   29   48 1
@<TRIPOS>MOLECULE
ZINC38674036
   61    65     0     0     0
SMALL
USER_CHARGES

@<TRIPOS>ATOM
      1 C1          2.8253    3.9810    1.0089 C.ar      1 <0>        -0.1194
      2 C2          4.2042    4.0096    0.9119 C.ar      1 <0>        -0.1205
      3 C3          4.9021    2.8393    0.6923 C.ar      1 <0>        -0.1165
      4 C4          4.2281    1.6330    0.5695 C.ar      1 <0>        -0.0751
      5 C5          2.8537    1.6046    0.6700 C.ar      1 <0>        -0.0695
      6 C6          2.1532    2.7815    0.8878 C.ar      1 <0>        -0.1202
      7 C7          2.0785    0.3172    0.5550 C.3       1 <0>        -0.0756
      8 C8          2.9525   -0.7632   -0.0826 C.3       1 <0>         0.0525
      9 N1          4.2370   -0.8085    0.6340 N.3       1 <0>        -0.5123
     10 C9          5.0330    0.3836    0.3251 C.3       1 <0>         0.0800
     11 C10         4.9778   -2.0348    0.3097 C.3       1 <0>         0.1268
     12 H1          4.3194   -2.8966    0.4186 H         1 <0>         0.0998
     13 C11         6.1676   -2.1786    1.2608 C.3       1 <0>         0.1320
     14 N2          5.6937   -2.1316    2.6462 N.am      1 <0>        -0.7168
     15 C12         6.5719   -2.2395    3.6629 C.2       1 <0>         0.5292
     16 O1          7.7613   -2.2987    3.4331 O.2       1 <0>        -0.5335
     17 C13         6.0760   -2.2867    5.0852 C.3       1 <0>        -0.0392
     18 C14         5.1511   -1.0882    5.3609 C.3       1 <0>        -0.1145
     19 C15         5.8080   -0.2768    6.4967 C.3       1 <0>        -0.1239
     20 C16         7.3081   -0.6539    6.4144 C.3       1 <0>        -0.1246
     21 C17         7.2626   -2.1617    6.0630 C.3       1 <0>        -0.1070
     22 C18         5.3377   -3.5771    5.3315 C.ar      1 <0>        -0.0627
     23 C19         5.2857   -4.5428    4.3437 C.ar      1 <0>        -0.1057
     24 C20         4.6088   -5.7266    4.5691 C.ar      1 <0>        -0.1038
     25 C21         3.9832   -5.9450    5.7836 C.ar      1 <0>        -0.0353
     26 C22         4.0356   -4.9781    6.7718 C.ar      1 <0>        -0.1059
     27 C23         4.7176   -3.7971    6.5473 C.ar      1 <0>        -0.0954
     28 Cl1         3.1322   -7.4313    6.0672 Cl        1 <0>        -0.0685
     29 C24         5.4762   -1.9598   -1.1106 C.2       1 <0>        -0.1567
     30 C25         4.8368   -2.6601   -2.1163 C.2       1 <0>        -0.1480
     31 C26         5.3108   -2.5710   -3.3831 C.2       1 <0>        -0.1692
     32 S1          6.7024   -1.4712   -3.1802 S.3       1 <0>         0.0471
     33 C27         6.5549   -1.2003   -1.4218 C.2       1 <0>        -0.1608
     34 H2          2.2758    4.8943    1.1835 H         1 <0>         0.1213
     35 H3          4.7341    4.9458    1.0073 H         1 <0>         0.1216
     36 H4          5.9791    2.8629    0.6152 H         1 <0>         0.1193
     37 H5          1.0760    2.7593    0.9630 H         1 <0>         0.1205
     38 H6          1.7678   -0.0080    1.5479 H         1 <0>         0.0842
     39 H7          1.1959    0.4803   -0.0634 H         1 <0>         0.0783
     40 H8          2.4552   -1.7299   -0.0042 H         1 <0>         0.0806
     41 H9          3.1265   -0.5218   -1.1312 H         1 <0>         0.0444
     42 H10         5.3394    0.3512   -0.7205 H         1 <0>         0.0650
     43 H11         5.9209    0.3976    0.9572 H         1 <0>         0.0864
     44 H12         6.6650   -3.1313    1.0791 H         1 <0>         0.0750
     45 H13         6.8704   -1.3633    1.0893 H         1 <0>         0.0692
     46 H14         4.7479   -2.0228    2.8319 H         1 <0>         0.4097
     47 H15         5.0610   -0.4725    4.4660 H         1 <0>         0.0753
     48 H16         4.1678   -1.4395    5.6735 H         1 <0>         0.0777
     49 H17         5.6736    0.7918    6.3291 H         1 <0>         0.0695
     50 H18         5.3939   -0.5676    7.4621 H         1 <0>         0.0691
     51 H19         7.8059   -0.0885    5.6267 H         1 <0>         0.0688
     52 H20         7.7993   -0.4957    7.3745 H         1 <0>         0.0717
     53 H21         7.0834   -2.7569    6.9583 H         1 <0>         0.0756
     54 H22         8.1898   -2.4687    5.5789 H         1 <0>         0.0895
     55 H23         5.7738   -4.3721    3.3956 H         1 <0>         0.1310
     56 H24         4.5679   -6.4808    3.7971 H         1 <0>         0.1337
     57 H25         3.5471   -5.1479    7.7200 H         1 <0>         0.1356
     58 H26         4.7626   -3.0443    7.3204 H         1 <0>         0.1352
     59 H27         3.9728   -3.2694   -1.8959 H         1 <0>         0.1336
     60 H28         4.9423   -3.0430   -4.2818 H         1 <0>         0.1865
     61 H29         7.1670   -0.5903   -0.7739 H         1 <0>         0.1853
@<TRIPOS>BOND
     1    1    6 ar
     2    1    2 ar
     3    1   34 1
     4    2    3 ar
     5    2   35 1
     6    3    4 ar
     7    3   36 1
     8    4   10 1
     9    4    5 ar
    10    5    6 ar
    11    5    7 1
    12    6   37 1
    13    7    8 1
    14    7   38 1
    15    7   39 1
    16    8    9 1
    17    8   40 1
    18    8   41 1
    19    9   10 1
    20    9   11 1
    21   10   42 1
    22   10   43 1
    23   11   12 1
    24   11   13 1
    25   11   29 1
    26   13   14 1
    27   13   44 1
    28   13   45 1
    29   14   15 am
    30   14   46 1
    31   15   16 2
    32   15   17 1
    33   17   21 1
    34   17   18 1
    35   17   22 1
    36   18   19 1
    37   18   47 1
    38   18   48 1
    39   19   20 1
    40   19   49 1
    41   19   50 1
    42   20   21 1
    43   20   51 1
    44   20   52 1
    45   21   53 1
    46   21   54 1
    47   22   27 ar
    48   22   23 ar
    49   23   24 ar
    50   23   55 1
    51   24   25 ar
    52   24   56 1
    53   25   26 ar
    54   25   28 1
    55   26   27 ar
    56   26   57 1
    57   27   58 1
    58   29   33 2
    59   29   30 1
    60   30   31 2
    61   30   59 1
    62   31   32 1
    63   31   60 1
    64   32   33 1
    65   33   61 1
@<TRIPOS>MOLECULE
ZINC64985275
   42    43     0     0     0
SMALL
USER_CHARGES

@<TRIPOS>ATOM
      1 C1         -0.0749    1.4995    0.0119 C.3       1 <0>        -0.1285
      2 C2         -0.0484   -0.0073    0.0030 C.ar      1 <0>        -0.0186
      3 C3         -0.0338   -0.6904   -1.1978 C.ar      1 <0>        -0.2050
      4 C4         -0.0089   -2.0772   -1.2055 C.ar      1 <0>         0.1478
      5 C5          0.0012   -2.7755   -0.0066 C.ar      1 <0>        -0.0988
      6 C6         -0.0135   -2.0888    1.1917 C.ar      1 <0>        -0.0435
      7 C7         -0.0329   -0.7053    1.1971 C.ar      1 <0>        -0.1258
      8 Br1        -0.0457    0.2324    2.8392 Br        1 <0>        -0.0453
      9 C8          0.0277   -4.2823   -0.0119 C.3       1 <0>        -0.0531
     10 C9          1.2844   -4.7728    0.7098 C.3       1 <0>        -0.1441
     11 C10        -1.2137   -4.8167    0.7053 C.3       1 <0>        -0.1439
     12 O1          0.0050   -2.7510   -2.3857 O.3       1 <0>        -0.2814
     13 C11        -0.0071   -1.9672   -3.5805 C.3       1 <0>         0.0413
     14 C12         0.0112   -2.8794   -4.7799 C.2       1 <0>         0.5206
     15 O2          0.0325   -4.0824   -4.6267 O.2       1 <0>        -0.4853
     16 N1          0.0038   -2.3585   -6.0229 N.am      1 <0>        -0.6684
     17 C13         0.1154   -3.2008   -7.1357 C.ar      1 <0>         0.1727
     18 C14        -0.4581   -4.4651   -7.1114 C.ar      1 <0>        -0.1040
     19 C15        -0.3466   -5.2941   -8.2103 C.ar      1 <0>        -0.0637
     20 C16         0.3364   -4.8666   -9.3352 C.ar      1 <0>        -0.0953
     21 C17         0.9096   -3.6078   -9.3630 C.ar      1 <0>        -0.0619
     22 C18         0.7955   -2.7711   -8.2686 C.ar      1 <0>        -0.0595
     23 Cl1         1.5082   -1.1886   -8.3065 Cl        1 <0>        -0.0497
     24 Br2         0.4871   -6.0054  -10.8374 Br        1 <0>        -0.0313
     25 H1          0.9463    1.8808    0.0114 H         1 <0>         0.0813
     26 H2         -0.5974    1.8589   -0.8745 H         1 <0>         0.0728
     27 H3         -0.5925    1.8485    0.9054 H         1 <0>         0.0805
     28 H4         -0.0420   -0.1449   -2.1299 H         1 <0>         0.1363
     29 H5         -0.0060   -2.6320    2.1251 H         1 <0>         0.1406
     30 H6          0.0358   -4.6419   -1.0408 H         1 <0>         0.0917
     31 H7          1.2763   -4.4132    1.7387 H         1 <0>         0.0557
     32 H8          1.3036   -5.8626    0.7060 H         1 <0>         0.0612
     33 H9          2.1688   -4.3921    0.1989 H         1 <0>         0.0555
     34 H10        -2.1090   -4.4672    0.1912 H         1 <0>         0.0556
     35 H11        -1.1945   -5.9065    0.7015 H         1 <0>         0.0612
     36 H12        -1.2218   -4.4571    1.7343 H         1 <0>         0.0557
     37 H13        -0.9081   -1.3543   -3.6038 H         1 <0>         0.1018
     38 H14         0.8715   -1.3225   -3.6010 H         1 <0>         0.1022
     39 H15        -0.0788   -1.3999   -6.1466 H         1 <0>         0.4173
     40 H16        -0.9908   -4.8000   -6.2336 H         1 <0>         0.1593
     41 H17        -0.7927   -6.2775   -8.1915 H         1 <0>         0.1462
     42 H18         1.4424   -3.2767  -10.2421 H         1 <0>         0.1498
@<TRIPOS>BOND
     1    1    2 1
     2    1   25 1
     3    1   26 1
     4    1   27 1
     5    2    7 ar
     6    2    3 ar
     7    3    4 ar
     8    3   28 1
     9    4    5 ar
    10    4   12 1
    11    5    6 ar
    12    5    9 1
    13    6    7 ar
    14    6   29 1
    15    7    8 1
    16    9   10 1
    17    9   11 1
    18    9   30 1
    19   10   31 1
    20   10   32 1
    21   10   33 1
    22   11   34 1
    23   11   35 1
    24   11   36 1
    25   12   13 1
    26   13   14 1
    27   13   37 1
    28   13   38 1
    29   14   15 2
    30   14   16 am
    31   16   17 1
    32   16   39 1
    33   17   22 ar
    34   17   18 ar
    35   18   19 ar
    36   18   40 1
    37   19   20 ar
    38   19   41 1
    39   20   21 ar
    40   20   24 1
    41   21   22 ar
    42   21   42 1
    43   22   23 1
@<TRIPOS>MOLECULE
ZINC00884455
   59    62     0     0     0
SMALL
USER_CHARGES
1-[(6-ethyl-2-oxo-1H-quinolin-3-yl)methyl]-3-(1-phenylethyl)-1-(2-thienylmethyl)thiourea
@<TRIPOS>ATOM
      1 C1         -0.8920  -10.1095   -0.4103 C.3       1 <0>        -0.1491
      2 C2         -1.8832   -9.1382   -1.0547 C.3       1 <0>        -0.0828
      3 C3         -2.2621   -8.0728   -0.0586 C.ar      1 <0>        -0.1173
      4 C4         -3.3530   -8.2693    0.7776 C.ar      1 <0>        -0.0581
      5 C5         -3.7169   -7.3090    1.6964 C.ar      1 <0>        -0.1660
      6 C6         -2.9861   -6.1287    1.7875 C.ar      1 <0>         0.1921
      7 C7         -1.8811   -5.9328    0.9379 C.ar      1 <0>        -0.1349
      8 C8         -1.5296   -6.9221    0.0133 C.ar      1 <0>        -0.0527
      9 C9         -1.1218   -4.6851    1.0374 C.2       1 <0>        -0.0129
     10 C10        -1.5067   -3.7641    1.9552 C.2       1 <0>        -0.1928
     11 C11        -2.6226   -4.0096    2.7837 C.2       1 <0>         0.5114
     12 O1         -2.9541   -3.1666    3.5991 O.2       1 <0>        -0.4569
     13 N1         -3.3289   -5.1504    2.6963 N.am      1 <0>        -0.6392
     14 H1         -4.1142   -5.2912    3.2992 H         1 <0>         0.4190
     15 C12        -0.7439   -2.4710    2.0868 C.3       1 <0>         0.1658
     16 N2         -1.4034   -1.4320    1.2919 N.pl3     1 <0>        -0.5679
     17 C13        -1.1189   -1.3144   -0.1404 C.3       1 <0>         0.1837
     18 C14        -0.0409   -0.2835   -0.3553 C.2       1 <0>        -0.1902
     19 C15         1.3050   -0.4286   -0.2861 C.2       1 <0>        -0.1250
     20 C16         2.1107    0.6692   -0.5235 C.2       1 <0>        -0.1618
     21 C17         1.5311    1.8584   -0.8185 C.2       1 <0>        -0.1582
     22 S1         -0.2051    1.4460   -0.7667 S.3       1 <0>         0.0512
     23 C18        -2.2718   -0.5844    1.8783 C.2       1 <0>         0.5433
     24 S2         -2.5336   -0.6609    3.5685 S.2       1 <0>        -0.5585
     25 N3         -2.9340    0.3234    1.1342 N.pl3     1 <0>        -0.6826
     26 C19        -3.8779    1.2448    1.7716 C.3       1 <0>         0.1863
     27 H2         -3.5118    1.5119    2.7630 H         1 <0>         0.1226
     28 C20        -5.2445    0.5684    1.8979 C.3       1 <0>        -0.1570
     29 C21        -4.0092    2.4896    0.9324 C.ar      1 <0>        -0.0922
     30 C22        -4.0445    2.3933   -0.4461 C.ar      1 <0>        -0.1156
     31 C23        -4.1693    3.5348   -1.2157 C.ar      1 <0>        -0.1133
     32 C24        -4.2497    4.7733   -0.6071 C.ar      1 <0>        -0.1169
     33 C25        -4.2092    4.8701    0.7712 C.ar      1 <0>        -0.1130
     34 C26        -4.0887    3.7282    1.5410 C.ar      1 <0>        -0.1018
     35 H3         -1.3531  -10.5743    0.4611 H         1 <0>         0.0560
     36 H4         -0.6179  -10.8801   -1.1308 H         1 <0>         0.0588
     37 H5          0.0012   -9.5659   -0.1022 H         1 <0>         0.0557
     38 H6         -2.7763   -9.6818   -1.3628 H         1 <0>         0.0726
     39 H7         -1.4220   -8.6734   -1.9261 H         1 <0>         0.0721
     40 H8         -3.9218   -9.1847    0.7076 H         1 <0>         0.1301
     41 H9         -4.5666   -7.4716    2.3428 H         1 <0>         0.1332
     42 H10        -0.6824   -6.7768   -0.6406 H         1 <0>         0.1317
     43 H11        -0.2716   -4.5037    0.3966 H         1 <0>         0.1395
     44 H12         0.2751   -2.6121    1.7267 H         1 <0>         0.0917
     45 H13        -0.7207   -2.1678    3.1335 H         1 <0>         0.1378
     46 H14        -2.0234   -1.0094   -0.6666 H         1 <0>         0.0854
     47 H15        -0.7824   -2.2774   -0.5243 H         1 <0>         0.1147
     48 H16         1.7414   -1.3877   -0.0494 H         1 <0>         0.1338
     49 H17         3.1860    0.5806   -0.4750 H         1 <0>         0.1374
     50 H18         1.9984    2.8088   -1.0303 H         1 <0>         0.1876
     51 H19        -2.7856    0.3668    0.1766 H         1 <0>         0.3887
     52 H20        -5.6107    0.3013    0.9066 H         1 <0>         0.0516
     53 H21        -5.1495   -0.3320    2.5049 H         1 <0>         0.0794
     54 H22        -5.9468    1.2539    2.3722 H         1 <0>         0.0728
     55 H23        -3.9779    1.4259   -0.9217 H         1 <0>         0.1108
     56 H24        -4.2013    3.4591   -2.2926 H         1 <0>         0.1230
     57 H25        -4.3446    5.6654   -1.2085 H         1 <0>         0.1234
     58 H26        -4.2721    5.8377    1.2467 H         1 <0>         0.1257
     59 H27        -4.0571    3.8038    2.6179 H         1 <0>         0.1278
@<TRIPOS>BOND
     1    1    2 1
     2    1   35 1
     3    1   36 1
     4    1   37 1
     5    2    3 1
     6    2   38 1
     7    2   39 1
     8    3    8 ar
     9    3    4 ar
    10    4    5 ar
    11    4   40 1
    12    5    6 ar
    13    5   41 1
    14    6   13 1
    15    6    7 ar
    16    7    8 ar
    17    7    9 1
    18    8   42 1
    19    9   10 2
    20    9   43 1
    21   10   11 1
    22   10   15 1
    23   11   12 2
    24   11   13 am
    25   13   14 1
    26   15   16 1
    27   15   44 1
    28   15   45 1
    29   16   17 1
    30   16   23 1
    31   17   18 1
    32   17   46 1
    33   17   47 1
    34   18   22 1
    35   18   19 2
    36   19   20 1
    37   19   48 1
    38   20   21 2
    39   20   49 1
    40   21   22 1
    41   21   50 1
    42   23   24 2
    43   23   25 1
    44   25   26 1
    45   25   51 1
    46   26   27 1
    47   26   28 1
    48   26   29 1
    49   28   52 1
    50   28   53 1
    51   28   54 1
    52   29   34 ar
    53   29   30 ar
    54   30   31 ar
    55   30   55 1
    56   31   32 ar
    57   31   56 1
    58   32   33 ar
    59   32   57 1
    60   33   34 ar
    61   33   58 1
    62   34   59 1
@<TRIPOS>MOLECULE
ZINC02999825
   49    52     0     0     0
SMALL
USER_CHARGES
2-(4-chlorophenyl)sulfanyl-N-[[4-(5-methyl-1,3-benzoxazol-2-yl)phenyl]carbamothioyl]acetamide
@<TRIPOS>ATOM
      1 C1        -11.9425   -5.9347    0.4672 C.3       1 <0>        -0.1137
      2 C2        -10.4378   -6.0118    0.4346 C.ar      1 <0>        -0.0840
      3 C3         -9.8098   -7.2477    0.4841 C.ar      1 <0>        -0.0908
      4 C4         -8.4333   -7.3353    0.4547 C.ar      1 <0>        -0.0883
      5 C5         -7.6690   -6.1816    0.3760 C.ar      1 <0>         0.0050
      6 C6         -8.3003   -4.9282    0.3260 C.ar      1 <0>         0.0303
      7 C7         -9.6952   -4.8552    0.3562 C.ar      1 <0>        -0.0631
      8 N1         -7.3141   -3.9971    0.2584 N.2       1 <0>        -0.4652
      9 C8         -6.1566   -4.6094    0.2571 C.2       1 <0>         0.2933
     10 O1         -6.3395   -5.9415    0.3310 O.3       1 <0>        -0.2085
     11 C9         -4.8433   -3.9374    0.1908 C.ar      1 <0>        -0.0233
     12 C10        -3.6687   -4.6936    0.2019 C.ar      1 <0>        -0.0733
     13 C11        -2.4454   -4.0637    0.1395 C.ar      1 <0>        -0.1216
     14 C12        -2.3788   -2.6765    0.0651 C.ar      1 <0>         0.1469
     15 C13        -3.5462   -1.9204    0.0592 C.ar      1 <0>        -0.0768
     16 C14        -4.7728   -2.5443    0.1165 C.ar      1 <0>        -0.0521
     17 N2         -1.1375   -2.0414    0.0020 N.pl3     1 <0>        -0.6218
     18 C15        -0.9537   -1.0033   -0.8377 C.2       1 <0>         0.5046
     19 S1         -2.1950   -0.5536   -1.9276 S.2       1 <0>        -0.4633
     20 N3          0.2075   -0.3192   -0.8193 N.am      1 <0>        -0.6380
     21 C16         0.3913    0.7189   -1.6589 C.2       1 <0>         0.5067
     22 O2         -0.4858    1.0343   -2.4343 O.2       1 <0>        -0.3794
     23 C17         1.6896    1.4838   -1.6384 C.3       1 <0>        -0.1585
     24 S2          1.6294    2.8106   -2.8739 S.3       1 <0>        -0.0070
     25 C18         3.1975    3.6007   -2.7278 C.ar      1 <0>        -0.0994
     26 C19         4.1230    3.1444   -1.7971 C.ar      1 <0>        -0.1261
     27 C20         5.3531    3.7623   -1.6886 C.ar      1 <0>        -0.0887
     28 C21         5.6605    4.8420   -2.4980 C.ar      1 <0>        -0.0407
     29 C22         4.7387    5.3024   -3.4219 C.ar      1 <0>        -0.0872
     30 C23         3.5091    4.6850   -3.5391 C.ar      1 <0>        -0.0840
     31 Cl1         7.2057    5.6201   -2.3544 Cl        1 <0>        -0.0639
     32 H1        -12.3302   -5.9696   -0.5509 H         1 <0>         0.0755
     33 H2        -12.3372   -6.7770    1.0354 H         1 <0>         0.0716
     34 H3        -12.2483   -5.0018    0.9408 H         1 <0>         0.0707
     35 H4        -10.4030   -8.1482    0.5462 H         1 <0>         0.1422
     36 H5         -7.9519   -8.3013    0.4930 H         1 <0>         0.1373
     37 H6        -10.1888   -3.8954    0.3179 H         1 <0>         0.1377
     38 H7         -3.7198   -5.7708    0.2596 H         1 <0>         0.1401
     39 H8         -1.5370   -4.6477    0.1480 H         1 <0>         0.1366
     40 H9         -3.4909   -0.8432    0.0055 H         1 <0>         0.1504
     41 H10        -5.6790   -1.9568    0.1081 H         1 <0>         0.1479
     42 H11        -0.4073   -2.3471    0.5624 H         1 <0>         0.4104
     43 H12         0.9108   -0.5740   -0.2018 H         1 <0>         0.4130
     44 H13         1.8415    1.9153   -0.6490 H         1 <0>         0.1245
     45 H14         2.5130    0.8083   -1.8705 H         1 <0>         0.1245
     46 H15         3.8820    2.3047   -1.1621 H         1 <0>         0.1295
     47 H16         6.0746    3.4051   -0.9687 H         1 <0>         0.1376
     48 H17         4.9814    6.1451   -4.0522 H         1 <0>         0.1416
     49 H18         2.7904    5.0443   -4.2608 H         1 <0>         0.1408
@<TRIPOS>BOND
     1    1    2 1
     2    1   32 1
     3    1   33 1
     4    1   34 1
     5    2    7 ar
     6    2    3 ar
     7    3    4 ar
     8    3   35 1
     9    4    5 ar
    10    4   36 1
    11    5   10 1
    12    5    6 ar
    13    6    7 ar
    14    6    8 1
    15    7   37 1
    16    8    9 2
    17    9   10 1
    18    9   11 1
    19   11   16 ar
    20   11   12 ar
    21   12   13 ar
    22   12   38 1
    23   13   14 ar
    24   13   39 1
    25   14   15 ar
    26   14   17 1
    27   15   16 ar
    28   15   40 1
    29   16   41 1
    30   17   18 1
    31   17   42 1
    32   18   19 2
    33   18   20 1
    34   20   21 am
    35   20   43 1
    36   21   22 2
    37   21   23 1
    38   23   24 1
    39   23   44 1
    40   23   45 1
    41   24   25 1
    42   25   30 ar
    43   25   26 ar
    44   26   27 ar
    45   26   46 1
    46   27   28 ar
    47   27   47 1
    48   28   29 ar
    49   28   31 1
    50   29   30 ar
    51   29   48 1
    52   30   49 1
@<TRIPOS>MOLECULE
ZINC20522025
   65    68     0     0     0
SMALL
USER_CHARGES
N-benzyl-2-(4-phenylbutanoylamino)-4,5,6,7,8,9-hexahydrocycloocta[d]thiophene-3-carboxamide
@<TRIPOS>ATOM
      1 C1         -0.0559    4.2672    0.0251 C.ar      1 <0>        -0.1241
      2 C2          1.1505    3.5924    0.0100 C.ar      1 <0>        -0.1179
      3 C3          1.1693    2.2102    0.0028 C.ar      1 <0>        -0.1171
      4 C4         -0.0184    1.5028    0.0103 C.ar      1 <0>        -0.0827
      5 C5         -1.2248    2.1776    0.0197 C.ar      1 <0>        -0.1172
      6 C6         -1.2435    3.5598    0.0322 C.ar      1 <0>        -0.1181
      7 C7          0.0021   -0.0041    0.0020 C.3       1 <0>        -0.0820
      8 C8          0.0228   -0.5218    1.4416 C.3       1 <0>        -0.1005
      9 C9          0.0435   -2.0516    1.4332 C.3       1 <0>        -0.1360
     10 C10         0.0639   -2.5615    2.8512 C.2       1 <0>         0.5090
     11 O1          0.0620   -1.7784    3.7773 O.2       1 <0>        -0.4992
     12 N1          0.0842   -3.8878    3.0901 N.am      1 <0>        -0.6370
     13 C11         0.1030   -4.3569    4.3948 C.2       1 <0>         0.0852
     14 C12         0.1193   -5.6652    4.8388 C.2       1 <0>        -0.2399
     15 C13         0.1597   -5.9089    6.2859 C.2       1 <0>        -0.0517
     16 C14         0.1296   -4.7898    7.0283 C.2       1 <0>        -0.1947
     17 S1          0.1040   -3.4479    5.8673 S.3       1 <0>         0.2062
     18 C15         0.0625   -4.6563    8.5241 C.3       1 <0>        -0.0566
     19 C16        -1.4099   -4.8623    8.9219 C.3       1 <0>        -0.1161
     20 C17        -1.8861   -6.1938    8.3270 C.3       1 <0>        -0.1270
     21 C18        -1.0182   -7.2540    8.9699 C.3       1 <0>        -0.1161
     22 C19         0.3331   -7.4380    8.3010 C.3       1 <0>        -0.1341
     23 C20         0.2505   -7.3526    6.7822 C.3       1 <0>        -0.0583
     24 C21         0.1011   -6.7818    3.8886 C.2       1 <0>         0.5820
     25 O2          1.1473   -7.2409    3.4691 O.2       1 <0>        -0.5366
     26 N2         -1.0741   -7.2996    3.4798 N.am      1 <0>        -0.7299
     27 C22        -1.0923   -8.4152    2.5304 C.3       1 <0>         0.1616
     28 C23        -2.5190   -8.8034    2.2387 C.ar      1 <0>        -0.1083
     29 C24        -3.1466   -9.7615    3.0127 C.ar      1 <0>        -0.0999
     30 C25        -4.4568  -10.1141    2.7483 C.ar      1 <0>        -0.1203
     31 C26        -5.1361   -9.5159    1.7035 C.ar      1 <0>        -0.1111
     32 C27        -4.5066   -8.5619    0.9259 C.ar      1 <0>        -0.1213
     33 C28        -3.1981   -8.2055    1.1937 C.ar      1 <0>        -0.1015
     34 H1         -0.0705    5.3471    0.0311 H         1 <0>         0.1212
     35 H2          2.0784    4.1450    0.0041 H         1 <0>         0.1218
     36 H3          2.1118    1.6830   -0.0091 H         1 <0>         0.1209
     37 H4         -2.1527    1.6249    0.0211 H         1 <0>         0.1206
     38 H5         -2.1860    4.0870    0.0437 H         1 <0>         0.1217
     39 H6         -0.8959   -0.3802   -0.5100 H         1 <0>         0.0747
     40 H7          0.9001   -0.3557   -0.5271 H         1 <0>         0.0750
     41 H8          0.9208   -0.1458    1.9536 H         1 <0>         0.0753
     42 H9         -0.8752   -0.1701    1.9707 H         1 <0>         0.0752
     43 H10        -0.8545   -2.4276    0.9212 H         1 <0>         0.1025
     44 H11         0.9415   -2.4033    0.9041 H         1 <0>         0.1032
     45 H12         0.0859   -4.5980    2.2501 H         1 <0>         0.4435
     46 H13         0.7037   -5.4194    8.9894 H         1 <0>         0.1047
     47 H14         0.4108   -3.6554    8.8189 H         1 <0>         0.0748
     48 H15        -1.4934   -4.8871   10.0184 H         1 <0>         0.0700
     49 H16        -2.0159   -4.0337    8.5267 H         1 <0>         0.0621
     50 H17        -2.9491   -6.3434    8.5672 H         1 <0>         0.0635
     51 H18        -1.7562   -6.1748    7.2349 H         1 <0>         0.0784
     52 H19        -0.8263   -6.9842   10.0189 H         1 <0>         0.0639
     53 H20        -1.5344   -8.2245    8.9295 H         1 <0>         0.0548
     54 H21         1.0231   -6.6541    8.6466 H         1 <0>         0.0786
     55 H22         0.7401   -8.4259    8.5623 H         1 <0>         0.0662
     56 H23        -0.6415   -7.9086    6.4579 H         1 <0>         0.0716
     57 H24         1.1505   -7.8279    6.3650 H         1 <0>         0.0752
     58 H25        -2.0196   -6.8846    3.8590 H         1 <0>         0.4236
     59 H26        -0.5971   -8.1102    1.5967 H         1 <0>         0.0747
     60 H27        -0.5598   -9.2745    2.9641 H         1 <0>         0.0756
     61 H28        -2.6145  -10.2318    3.8264 H         1 <0>         0.1235
     62 H29        -4.9484  -10.8597    3.3556 H         1 <0>         0.1245
     63 H30        -6.1585   -9.7941    1.4945 H         1 <0>         0.1237
     64 H31        -5.0373   -8.0948    0.1095 H         1 <0>         0.1241
     65 H32        -2.7064   -7.4602    0.5862 H         1 <0>         0.1223
@<TRIPOS>BOND
     1    1    6 ar
     2    1    2 ar
     3    1   34 1
     4    2    3 ar
     5    2   35 1
     6    3    4 ar
     7    3   36 1
     8    4    5 ar
     9    4    7 1
    10    5    6 ar
    11    5   37 1
    12    6   38 1
    13    7    8 1
    14    7   39 1
    15    7   40 1
    16    8    9 1
    17    8   41 1
    18    8   42 1
    19    9   10 1
    20    9   43 1
    21    9   44 1
    22   10   11 2
    23   10   12 am
    24   12   13 1
    25   12   45 1
    26   13   17 1
    27   13   14 2
    28   14   15 1
    29   14   24 1
    30   15   23 1
    31   15   16 2
    32   16   17 1
    33   16   18 1
    34   18   19 1
    35   18   46 1
    36   18   47 1
    37   19   20 1
    38   19   48 1
    39   19   49 1
    40   20   21 1
    41   20   50 1
    42   20   51 1
    43   21   22 1
    44   21   52 1
    45   21   53 1
    46   22   23 1
    47   22   54 1
    48   22   55 1
    49   23   56 1
    50   23   57 1
    51   24   25 2
    52   24   26 am
    53   26   27 1
    54   26   58 1
    55   27   28 1
    56   27   59 1
    57   27   60 1
    58   28   33 ar
    59   28   29 ar
    60   29   30 ar
    61   29   61 1
    62   30   31 ar
    63   30   62 1
    64   31   32 ar
    65   31   63 1
    66   32   33 ar
    67   32   64 1
    68   33   65 1
@<TRIPOS>MOLECULE
ZINC36564072
   55    56     0     0     0
SMALL
USER_CHARGES

@<TRIPOS>ATOM
      1 C1         -0.0187    1.5258    0.0104 C.3       1 <0>        -0.1493
      2 C2          0.0021   -0.0041    0.0020 C.3       1 <0>        -0.1217
      3 C3          0.7182   -0.4975   -1.2568 C.3       1 <0>         0.1848
      4 H1          1.7103   -0.0491   -1.3098 H         1 <0>         0.1252
      5 C4          0.8473   -1.9981   -1.2057 C.ar      1 <0>        -0.0972
      6 C5         -0.2268   -2.7964   -1.5521 C.ar      1 <0>        -0.1187
      7 C6         -0.1084   -4.1728   -1.5053 C.ar      1 <0>        -0.1148
      8 C7          1.0842   -4.7510   -1.1125 C.ar      1 <0>        -0.1153
      9 C8          2.1586   -3.9527   -0.7670 C.ar      1 <0>        -0.1129
     10 C9          2.0415   -2.5763   -0.8179 C.ar      1 <0>        -0.1012
     11 N1         -0.0549   -0.1139   -2.4405 N.pl3     1 <0>        -0.6692
     12 C10         0.1070    1.1088   -2.9841 C.2       1 <0>         0.5081
     13 S1          1.2163    2.2135   -2.2912 S.2       1 <0>        -0.4883
     14 N2         -0.6042    1.4617   -4.0731 N.am      1 <0>        -0.6459
     15 C11        -0.4423    2.6843   -4.6167 C.2       1 <0>         0.5350
     16 O1          0.3453    3.4687   -4.1247 O.2       1 <0>        -0.3776
     17 C12        -1.2205    3.0704   -5.8081 C.ar      1 <0>        -0.1709
     18 C13        -2.1312    2.1739   -6.3736 C.ar      1 <0>        -0.0220
     19 C14        -2.8555    2.5413   -7.4875 C.ar      1 <0>        -0.1401
     20 C15        -2.6842    3.7967   -8.0501 C.ar      1 <0>        -0.0171
     21 C16        -1.7874    4.6914   -7.5014 C.ar      1 <0>        -0.2107
     22 C17        -1.0552    4.3410   -6.3767 C.ar      1 <0>         0.2129
     23 O2         -0.1781    5.2217   -5.8331 O.3       1 <0>        -0.2722
     24 C18        -0.0631    6.4974   -6.4667 C.3       1 <0>         0.0492
     25 C19         0.9655    7.3476   -5.7182 C.3       1 <0>        -0.1137
     26 C20         1.0887    8.7135   -6.3965 C.3       1 <0>        -0.0928
     27 C21        -0.2348    9.4698   -6.2643 C.3       1 <0>        -0.1540
     28 C22         2.2046    9.5172   -5.7259 C.3       1 <0>        -0.1480
     29 Br1        -4.0876    1.3273   -8.2518 Br        1 <0>        -0.0384
     30 H2          1.0039    1.9031    0.0027 H         1 <0>         0.0831
     31 H3         -0.5459    1.8868   -0.8726 H         1 <0>         0.0541
     32 H4         -0.5289    1.8773    0.9072 H         1 <0>         0.0416
     33 H5          0.5293   -0.3651    0.8851 H         1 <0>         0.0797
     34 H6         -1.0205   -0.3814    0.0098 H         1 <0>         0.0607
     35 H7         -1.1586   -2.3447   -1.8590 H         1 <0>         0.1167
     36 H8         -0.9478   -4.7965   -1.7752 H         1 <0>         0.1246
     37 H9          1.1765   -5.8264   -1.0752 H         1 <0>         0.1248
     38 H10         3.0902   -4.4045   -0.4598 H         1 <0>         0.1273
     39 H11         2.8820   -1.9526   -0.5516 H         1 <0>         0.1292
     40 H12        -0.6834   -0.7398   -2.8331 H         1 <0>         0.3956
     41 H13        -1.2327    0.8358   -4.4657 H         1 <0>         0.4041
     42 H14        -2.2671    1.1947   -5.9388 H         1 <0>         0.1369
     43 H15        -3.2554    4.0763   -8.9230 H         1 <0>         0.1439
     44 H16        -1.6590    5.6673   -7.9458 H         1 <0>         0.1479
     45 H17         0.2592    6.3626   -7.4992 H         1 <0>         0.0663
     46 H18        -1.0304    6.9996   -6.4506 H         1 <0>         0.0692
     47 H19         0.6432    7.4824   -4.6857 H         1 <0>         0.0785
     48 H20         1.9328    6.8454   -5.7343 H         1 <0>         0.0782
     49 H21         1.3242    8.5752   -7.4517 H         1 <0>         0.0721
     50 H22        -1.0297    8.8972   -6.7421 H         1 <0>         0.0536
     51 H23        -0.4703    9.6080   -5.2091 H         1 <0>         0.0584
     52 H24        -0.1470   10.4428   -6.7475 H         1 <0>         0.0578
     53 H25         3.1474    8.9784   -5.8201 H         1 <0>         0.0573
     54 H26         2.2923   10.4902   -6.2091 H         1 <0>         0.0577
     55 H27         1.9690    9.6554   -4.6707 H         1 <0>         0.0577
@<TRIPOS>BOND
     1    1    2 1
     2    1   30 1
     3    1   31 1
     4    1   32 1
     5    2    3 1
     6    2   33 1
     7    2   34 1
     8    3    4 1
     9    3    5 1
    10    3   11 1
    11    5   10 ar
    12    5    6 ar
    13    6    7 ar
    14    6   35 1
    15    7    8 ar
    16    7   36 1
    17    8    9 ar
    18    8   37 1
    19    9   10 ar
    20    9   38 1
    21   10   39 1
    22   11   12 1
    23   11   40 1
    24   12   13 2
    25   12   14 1
    26   14   15 am
    27   14   41 1
    28   15   16 2
    29   15   17 1
    30   17   22 ar
    31   17   18 ar
    32   18   19 ar
    33   18   42 1
    34   19   20 ar
    35   19   29 1
    36   20   21 ar
    37   20   43 1
    38   21   22 ar
    39   21   44 1
    40   22   23 1
    41   23   24 1
    42   24   25 1
    43   24   45 1
    44   24   46 1
    45   25   26 1
    46   25   47 1
    47   25   48 1
    48   26   27 1
    49   26   28 1
    50   26   49 1
    51   27   50 1
    52   27   51 1
    53   27   52 1
    54   28   53 1
    55   28   54 1
    56   28   55 1
@<TRIPOS>MOLECULE
ZINC59065191
   61    63     0     0     0
SMALL
NO_CHARGES

@<TRIPOS>ATOM
      1 C1         -3.4180   -0.5197   -0.1385 C.3       1 <0>        -0.1687
      2 C2         -2.0445    0.0994    0.1282 C.3       1 <0>        -0.0120
      3 N1         -1.1570   -0.1683   -1.0114 N.4       1 <0>        -0.2715
      4 C3          0.1163    0.5379   -0.8169 C.3       1 <0>        -0.0099
      5 C4          0.9814    0.3839   -2.0694 C.3       1 <0>        -0.1662
      6 C5         -0.9183   -1.5427   -1.1033 C.ar      1 <0>        -0.2462
      7 C6         -0.3273   -2.2136   -0.0490 C.ar      1 <0>        -0.1600
      8 C7         -0.0913   -3.5726   -0.1398 C.ar      1 <0>        -0.0541
      9 C8         -0.4466   -4.2608   -1.2848 C.ar      1 <0>        -0.2648
     10 C9         -1.0384   -3.5901   -2.3388 C.ar      1 <0>        -0.0912
     11 C10        -1.2784   -2.2319   -2.2462 C.ar      1 <0>        -0.1388
     12 C11        -0.1884   -5.7422   -1.3843 C.3       1 <0>         0.1651
     13 N2         -1.3509   -6.4757   -0.8774 N.pl3     1 <0>        -0.5353
     14 C12        -2.4342   -6.8517   -1.7891 C.3       1 <0>         0.1299
     15 C13        -2.1488   -8.2105   -2.3750 C.ar      1 <0>        -0.1661
     16 C14        -1.4259   -8.3298   -3.5523 C.ar      1 <0>        -0.0546
     17 C15        -1.1874   -9.5998   -4.0544 C.ar      1 <0>        -0.1673
     18 C16        -1.6747  -10.6972   -3.3697 C.ar      1 <0>         0.1023
     19 N3         -2.3590  -10.5459   -2.2527 N.ar      1 <0>        -0.4770
     20 C17        -2.5994   -9.3537   -1.7428 C.ar      1 <0>         0.1093
     21 C18        -1.4237   -6.8045    0.4276 C.2       1 <0>         0.5584
     22 S1         -0.1577   -6.3650    1.4930 S.2       1 <0>        -0.6286
     23 N4         -2.4932   -7.4793    0.8938 N.pl3     1 <0>        -0.6391
     24 C19        -2.6215   -7.7256    2.2655 C.ar      1 <0>         0.1413
     25 C20        -1.5172   -8.1233    3.0074 C.ar      1 <0>        -0.0611
     26 C21        -1.6471   -8.3657    4.3609 C.ar      1 <0>        -0.0754
     27 C22        -2.8752   -8.2128    4.9781 C.ar      1 <0>        -0.1068
     28 C23        -3.9774   -7.8174    4.2429 C.ar      1 <0>        -0.1066
     29 C24        -3.8532   -7.5672    2.8892 C.ar      1 <0>        -0.0517
     30 Cl1        -5.2356   -7.0632    1.9679 Cl        1 <0>        -0.0742
     31 C25        -0.4489   -8.7978    5.1663 C.3       1 <0>        -0.1112
     32 H1         -3.8798   -0.0249   -0.9929 H         1 <0>         0.0617
     33 H2         -3.3022   -1.5821   -0.3528 H         1 <0>         0.0877
     34 H3         -4.0504   -0.3931    0.7402 H         1 <0>         0.0819
     35 H4         -2.1508    1.1761    0.2608 H         1 <0>         0.0973
     36 H5         -1.6182   -0.3376    1.0312 H         1 <0>         0.1127
     37 H6         -0.0784    1.5953   -0.6376 H         1 <0>         0.0968
     38 H7          0.6395    0.1143    0.0404 H         1 <0>         0.1135
     39 H8          1.2526   -0.6641   -2.1971 H         1 <0>         0.0873
     40 H9          0.4221    0.7232   -2.9413 H         1 <0>         0.0621
     41 H10         1.8858    0.9828   -1.9623 H         1 <0>         0.0817
     42 H11        -0.0497   -1.6759    0.8456 H         1 <0>         0.0816
     43 H12         0.3711   -4.0967    0.6836 H         1 <0>         0.1244
     44 H13        -1.3157   -4.1277   -3.2335 H         1 <0>         0.0853
     45 H14        -1.7441   -1.7086   -3.0682 H         1 <0>         0.0833
     46 H15        -0.0148   -6.0116   -2.4261 H         1 <0>         0.0672
     47 H16         0.6897   -5.9986   -0.7915 H         1 <0>         0.1020
     48 H17        -3.3759   -6.8828   -1.2411 H         1 <0>         0.0810
     49 H18        -2.5050   -6.1176   -2.5917 H         1 <0>         0.1072
     50 H19        -1.0576   -7.4541   -4.0660 H         1 <0>         0.1367
     51 H20        -0.6282   -9.7300   -4.9691 H         1 <0>         0.1393
     52 H21        -1.4932  -11.6900   -3.7542 H         1 <0>         0.1591
     53 H22        -3.1591   -9.2695   -0.8229 H         1 <0>         0.1406
     54 H23        -3.1739   -7.7942    0.2787 H         1 <0>         0.4010
     55 H24        -0.5577   -8.2433    2.5265 H         1 <0>         0.1652
     56 H25        -2.9737   -8.4031    6.0366 H         1 <0>         0.1315
     57 H26        -4.9353   -7.6997    4.7277 H         1 <0>         0.1351
     58 H27         0.0620   -7.9182    5.5580 H         1 <0>         0.0740
     59 H28        -0.7754   -9.4271    5.9943 H         1 <0>         0.0665
     60 H29         0.2333   -9.3607    4.5292 H         1 <0>         0.0688
     61 H30        -1.5944    0.1546   -1.8614 H         1 <0>         0.3993
@<TRIPOS>BOND
     1    1    2 1
     2    1   32 1
     3    1   33 1
     4    1   34 1
     5    2    3 1
     6    2   35 1
     7    2   36 1
     8    3    4 1
     9    3    6 1
    10    3   61 1
    11    4    5 1
    12    4   37 1
    13    4   38 1
    14    5   39 1
    15    5   40 1
    16    5   41 1
    17    6   11 ar
    18    6    7 ar
    19    7    8 ar
    20    7   42 1
    21    8    9 ar
    22    8   43 1
    23    9   10 ar
    24    9   12 1
    25   10   11 ar
    26   10   44 1
    27   11   45 1
    28   12   13 1
    29   12   46 1
    30   12   47 1
    31   13   14 1
    32   13   21 1
    33   14   15 1
    34   14   48 1
    35   14   49 1
    36   15   20 ar
    37   15   16 ar
    38   16   17 ar
    39   16   50 1
    40   17   18 ar
    41   17   51 1
    42   18   19 ar
    43   18   52 1
    44   19   20 ar
    45   20   53 1
    46   21   22 2
    47   21   23 1
    48   23   24 1
    49   23   54 1
    50   24   29 ar
    51   24   25 ar
    52   25   26 ar
    53   25   55 1
    54   26   27 ar
    55   26   31 1
    56   27   28 ar
    57   27   56 1
    58   28   29 ar
    59   28   57 1
    60   29   30 1
    61   31   58 1
    62   31   59 1
    63   31   60 1
@<TRIPOS>MOLECULE
ZINC08189006
   47    49     0     0     0
SMALL
USER_CHARGES
N-[2-chloro-4-[2-(3,5-dimethylphenoxy)acetyl]amino-phenyl]thiophene-2-carboxamide
@<TRIPOS>ATOM
      1 C1          9.2721    6.8493    0.4363 C.3       1 <0>        -0.1177
      2 C2          7.9835    7.6033    0.2314 C.ar      1 <0>        -0.0418
      3 C3          8.0001    8.9810    0.1165 C.ar      1 <0>        -0.1571
      4 C4          6.8196    9.6756   -0.0725 C.ar      1 <0>        -0.0405
      5 C5          5.6201    8.9942   -0.1464 C.ar      1 <0>        -0.1539
      6 C6          5.6007    7.6119   -0.0309 C.ar      1 <0>         0.1348
      7 C7          6.7860    6.9178    0.1644 C.ar      1 <0>        -0.2182
      8 O1          4.4221    6.9392   -0.1033 O.3       1 <0>        -0.2892
      9 C8          4.4779    5.5170    0.0238 C.3       1 <0>         0.0441
     10 C9          3.0862    4.9484   -0.0809 C.2       1 <0>         0.5153
     11 O2          2.1397    5.6882   -0.2480 O.2       1 <0>        -0.4885
     12 N1          2.8933    3.6176    0.0112 N.am      1 <0>        -0.6689
     13 C10         1.5925    3.0981    0.0293 C.ar      1 <0>         0.1465
     14 C11         1.3245    1.8761   -0.5739 C.ar      1 <0>        -0.1142
     15 C12         0.0428    1.3637   -0.5567 C.ar      1 <0>        -0.0864
     16 C13        -0.9804    2.0725    0.0592 C.ar      1 <0>         0.1472
     17 C14        -0.7113    3.2921    0.6687 C.ar      1 <0>        -0.0411
     18 C15         0.5715    3.8046    0.6508 C.ar      1 <0>        -0.0915
     19 Cl1        -1.9885    4.1753    1.4450 Cl        1 <0>        -0.0536
     20 N2         -2.2819    1.5555    0.0711 N.am      1 <0>        -0.6655
     21 C16        -2.4777    0.2247    0.1544 C.2       1 <0>         0.6110
     22 O3         -1.5298   -0.5207    0.3199 O.2       1 <0>        -0.5037
     23 C17        -3.8319   -0.3250    0.0459 C.2       1 <0>        -0.2502
     24 C18        -4.2457   -1.6468    0.1041 C.2       1 <0>        -0.0595
     25 C19        -5.5907   -1.8871   -0.0280 C.2       1 <0>        -0.1800
     26 C20        -6.4375   -0.8393   -0.2060 C.2       1 <0>        -0.1726
     27 S1         -5.3785    0.5331   -0.1877 S.3       1 <0>         0.1455
     28 C21         6.8414   11.1772   -0.1984 C.3       1 <0>        -0.1174
     29 H1          9.4715    6.7538    1.5036 H         1 <0>         0.0740
     30 H2          9.1873    5.8574   -0.0077 H         1 <0>         0.0670
     31 H3         10.0897    7.3913   -0.0390 H         1 <0>         0.0700
     32 H4          8.9368    9.5155    0.1740 H         1 <0>         0.1247
     33 H5          4.6983    9.5372   -0.2943 H         1 <0>         0.1323
     34 H6          6.7730    5.8420    0.2591 H         1 <0>         0.1267
     35 H7          4.9054    5.2553    0.9917 H         1 <0>         0.0993
     36 H8          5.0994    5.1052   -0.7713 H         1 <0>         0.0980
     37 H9          3.6552    3.0197    0.0648 H         1 <0>         0.4163
     38 H10         2.1190    1.3267   -1.0569 H         1 <0>         0.1405
     39 H11        -0.1652    0.4136   -1.0263 H         1 <0>         0.1505
     40 H12         0.7801    4.7548    1.1198 H         1 <0>         0.1503
     41 H13        -3.0425    2.1553    0.0193 H         1 <0>         0.4131
     42 H14        -3.5407   -2.4522    0.2473 H         1 <0>         0.1504
     43 H15        -5.9715   -2.8970    0.0096 H         1 <0>         0.1444
     44 H16        -7.5108   -0.8569   -0.3248 H         1 <0>         0.1939
     45 H17         6.7345   11.6262    0.7891 H         1 <0>         0.0752
     46 H18         7.7873   11.4911   -0.6398 H         1 <0>         0.0702
     47 H19         6.0182   11.5004   -0.8355 H         1 <0>         0.0701
@<TRIPOS>BOND
     1    1    2 1
     2    1   29 1
     3    1   30 1
     4    1   31 1
     5    2    7 ar
     6    2    3 ar
     7    3    4 ar
     8    3   32 1
     9    4    5 ar
    10    4   28 1
    11    5    6 ar
    12    5   33 1
    13    6    7 ar
    14    6    8 1
    15    7   34 1
    16    8    9 1
    17    9   10 1
    18    9   35 1
    19    9   36 1
    20   10   11 2
    21   10   12 am
    22   12   13 1
    23   12   37 1
    24   13   18 ar
    25   13   14 ar
    26   14   15 ar
    27   14   38 1
    28   15   16 ar
    29   15   39 1
    30   16   17 ar
    31   16   20 1
    32   17   18 ar
    33   17   19 1
    34   18   40 1
    35   20   21 am
    36   20   41 1
    37   21   22 2
    38   21   23 1
    39   23   27 1
    40   23   24 2
    41   24   25 1
    42   24   42 1
    43   25   26 2
    44   25   43 1
    45   26   27 1
    46   26   44 1
    47   28   45 1
    48   28   46 1
    49   28   47 1
@<TRIPOS>MOLECULE
ZINC03084133
   39    40     0     0     0
SMALL
USER_CHARGES
N-[(3-bromophenyl)methyleneamino]-N'-(2,5-dichlorophenyl)butanediamide
@<TRIPOS>ATOM
      1 C1         -0.0090    1.0742   -0.0798 C.ar      1 <0>        -0.1163
      2 C2          1.1771    1.7788   -0.0766 C.ar      1 <0>        -0.0747
      3 C3          1.1563    3.1753   -0.0627 C.ar      1 <0>        -0.0510
      4 C4         -0.0673    3.8492   -0.0522 C.ar      1 <0>        -0.0521
      5 C5         -1.2462    3.1317   -0.0556 C.ar      1 <0>        -0.0962
      6 C6         -1.2175    1.7473   -0.0747 C.ar      1 <0>        -0.0750
      7 Br1        -2.9041    4.0410   -0.0415 Br        1 <0>        -0.0427
      8 C7          2.4204    3.9350   -0.0596 C.2       1 <0>         0.1095
      9 N1          2.3977    5.2323   -0.0468 N.2       1 <0>        -0.2254
     10 N2          3.5985    5.9540   -0.0438 N.am      1 <0>        -0.5837
     11 C8          3.5749    7.3015   -0.0305 C.2       1 <0>         0.5323
     12 O1          2.5139    7.8894   -0.0209 O.2       1 <0>        -0.5003
     13 C9          4.8666    8.0777   -0.0273 C.3       1 <0>        -0.1199
     14 C10         4.5607    9.5767   -0.0115 C.3       1 <0>        -0.1249
     15 C11         5.8524   10.3530   -0.0083 C.2       1 <0>         0.5198
     16 O2          6.9132    9.7651   -0.0179 O.2       1 <0>        -0.5154
     17 N3          5.8288   11.7005    0.0050 N.am      1 <0>        -0.6701
     18 C12         7.0252   12.4205    0.1027 C.ar      1 <0>         0.1686
     19 C13         8.1783   11.9388   -0.5022 C.ar      1 <0>        -0.1042
     20 C14         9.3569   12.6548   -0.4084 C.ar      1 <0>        -0.0133
     21 C15         9.3908   13.8453    0.2968 C.ar      1 <0>        -0.1126
     22 C16         8.2455   14.3249    0.9046 C.ar      1 <0>        -0.0775
     23 C17         7.0625   13.6160    0.8100 C.ar      1 <0>        -0.0628
     24 Cl1         5.6248   14.2191    1.5735 Cl        1 <0>        -0.0524
     25 Cl2        10.7977   12.0570   -1.1703 Cl        1 <0>        -0.0521
     26 H1          0.0061   -0.0057   -0.0909 H         1 <0>         0.1389
     27 H2          2.1197    1.2517   -0.0844 H         1 <0>         0.1367
     28 H3         -0.0906    4.9288   -0.0411 H         1 <0>         0.1455
     29 H4         -2.1429    1.1905   -0.0818 H         1 <0>         0.1366
     30 H5          3.3651    3.4116   -0.0681 H         1 <0>         0.1266
     31 H6          4.4469    5.4838   -0.0515 H         1 <0>         0.3901
     32 H7          5.4458    7.8157    0.8581 H         1 <0>         0.1097
     33 H8          5.4396    7.8333   -0.9218 H         1 <0>         0.1098
     34 H9          3.9815    9.8388   -0.8969 H         1 <0>         0.1117
     35 H10         3.9877    9.8212    0.8830 H         1 <0>         0.1121
     36 H11         4.9827   12.1713   -0.0530 H         1 <0>         0.4187
     37 H12         8.1535   11.0075   -1.0485 H         1 <0>         0.1605
     38 H13        10.3140   14.4006    0.3728 H         1 <0>         0.1463
     39 H14         8.2751   15.2541    1.4542 H         1 <0>         0.1493
@<TRIPOS>BOND
     1    1    6 ar
     2    1    2 ar
     3    1   26 1
     4    2    3 ar
     5    2   27 1
     6    3    4 ar
     7    3    8 1
     8    4    5 ar
     9    4   28 1
    10    5    6 ar
    11    5    7 1
    12    6   29 1
    13    8    9 2
    14    8   30 1
    15    9   10 1
    16   10   11 am
    17   10   31 1
    18   11   12 2
    19   11   13 1
    20   13   14 1
    21   13   32 1
    22   13   33 1
    23   14   15 1
    24   14   34 1
    25   14   35 1
    26   15   16 2
    27   15   17 am
    28   17   18 1
    29   17   36 1
    30   18   23 ar
    31   18   19 ar
    32   19   20 ar
    33   19   37 1
    34   20   21 ar
    35   20   25 1
    36   21   22 ar
    37   21   38 1
    38   22   23 ar
    39   22   39 1
    40   23   24 1
@<TRIPOS>MOLECULE
ZINC37384256
   50    52     0     0     0
SMALL
USER_CHARGES

@<TRIPOS>ATOM
      1 C1         -0.0187    1.5258    0.0104 C.3       1 <0>        -0.1539
      2 C2          0.0021   -0.0041    0.0020 C.3       1 <0>        -0.1324
      3 C3         -1.4333   -0.5336    0.0129 C.3       1 <0>         0.1394
      4 H1         -1.9701   -0.1109    0.8621 H         1 <0>         0.0899
      5 C4         -1.4133   -2.0590    0.1302 C.3       1 <0>        -0.1653
      6 N1         -2.1054   -0.1483   -1.2305 N.am      1 <0>        -0.7246
      7 C5         -3.4483   -0.0395   -1.2649 C.2       1 <0>         0.5196
      8 O1         -4.1004   -0.2606   -0.2665 O.2       1 <0>        -0.5309
      9 C6         -4.1397    0.3569   -2.5439 C.3       1 <0>        -0.1582
     10 C7         -5.6513    0.4064   -2.3124 C.3       1 <0>         0.1417
     11 N2         -6.3234    0.7918   -3.5558 N.pl3     1 <0>        -0.6989
     12 C8         -7.6971    0.9031   -3.5910 C.ar      1 <0>         0.4812
     13 C9         -8.3664    1.2689   -4.7860 C.ar      1 <0>        -0.1995
     14 C10        -7.6745    1.5315   -5.9729 C.ar      1 <0>        -0.0700
     15 C11        -8.3700    1.8793   -7.0938 C.ar      1 <0>        -0.1334
     16 C12        -9.7584    1.9765   -7.0725 C.ar      1 <0>        -0.0734
     17 C13       -10.4625    1.7271   -5.9322 C.ar      1 <0>        -0.1087
     18 C14        -9.7795    1.3670   -4.7616 C.ar      1 <0>         0.1935
     19 N3        -10.4249    1.1112   -3.6156 N.ar      1 <0>        -0.5430
     20 C15        -9.7527    0.7743   -2.5309 C.ar      1 <0>         0.4139
     21 N4         -8.4255    0.6656   -2.5107 N.ar      1 <0>        -0.5830
     22 C16       -10.5070    0.5004   -1.2840 C.ar      1 <0>        -0.0418
     23 C17        -9.8279    0.1476   -0.1186 C.ar      1 <0>        -0.0525
     24 C18       -10.5346   -0.1058    1.0392 C.ar      1 <0>        -0.1245
     25 C19       -11.9147   -0.0110    1.0454 C.ar      1 <0>        -0.0705
     26 C20       -12.5946    0.3388   -0.1082 C.ar      1 <0>        -0.1038
     27 C21       -11.8970    0.6002   -1.2713 C.ar      1 <0>        -0.0404
     28 Br1       -14.4813    0.4653   -0.0904 Br        1 <0>        -0.0457
     29 H2          1.0039    1.9031    0.0027 H         1 <0>         0.0577
     30 H3         -0.5459    1.8868   -0.8726 H         1 <0>         0.0537
     31 H4         -0.5289    1.8773    0.9072 H         1 <0>         0.0563
     32 H5          0.5123   -0.3556   -0.8948 H         1 <0>         0.0681
     33 H6          0.5293   -0.3651    0.8851 H         1 <0>         0.0802
     34 H7         -0.8764   -2.4817   -0.7190 H         1 <0>         0.0567
     35 H8         -0.9132   -2.3457    1.0553 H         1 <0>         0.0672
     36 H9         -2.4359   -2.4363    0.1380 H         1 <0>         0.0614
     37 H10        -1.5839    0.0285   -2.0291 H         1 <0>         0.4000
     38 H11        -3.7878    1.3396   -2.8577 H         1 <0>         0.1013
     39 H12        -3.9148   -0.3745   -3.3202 H         1 <0>         0.1014
     40 H13        -6.0032   -0.5763   -1.9986 H         1 <0>         0.0819
     41 H14        -5.8761    1.1378   -1.5361 H         1 <0>         0.0820
     42 H15        -5.8019    0.9686   -4.3543 H         1 <0>         0.4112
     43 H16        -6.5973    1.4598   -6.0016 H         1 <0>         0.1248
     44 H17        -7.8359    2.0825   -8.0103 H         1 <0>         0.1305
     45 H18       -10.2859    2.2540   -7.9731 H         1 <0>         0.1340
     46 H19       -11.5395    1.8066   -5.9302 H         1 <0>         0.1407
     47 H20        -8.7505    0.0725   -0.1221 H         1 <0>         0.1443
     48 H21       -10.0091   -0.3791    1.9423 H         1 <0>         0.1382
     49 H22       -12.4636   -0.2109    1.9537 H         1 <0>         0.1358
     50 H23       -12.4279    0.8774   -2.1700 H         1 <0>         0.1476
@<TRIPOS>BOND
     1    1    2 1
     2    1   29 1
     3    1   30 1
     4    1   31 1
     5    2    3 1
     6    2   32 1
     7    2   33 1
     8    3    4 1
     9    3    5 1
    10    3    6 1
    11    5   34 1
    12    5   35 1
    13    5   36 1
    14    6    7 am
    15    6   37 1
    16    7    8 2
    17    7    9 1
    18    9   10 1
    19    9   38 1
    20    9   39 1
    21   10   11 1
    22   10   40 1
    23   10   41 1
    24   11   12 1
    25   11   42 1
    26   12   21 ar
    27   12   13 ar
    28   13   18 ar
    29   13   14 ar
    30   14   15 ar
    31   14   43 1
    32   15   16 ar
    33   15   44 1
    34   16   17 ar
    35   16   45 1
    36   17   18 ar
    37   17   46 1
    38   18   19 ar
    39   19   20 ar
    40   20   21 ar
    41   20   22 1
    42   22   27 ar
    43   22   23 ar
    44   23   24 ar
    45   23   47 1
    46   24   25 ar
    47   24   48 1
    48   25   26 ar
    49   25   49 1
    50   26   27 ar
    51   26   28 1
    52   27   50 1
@<TRIPOS>MOLECULE
ZINC43763369
   62    65     0     0     0
SMALL
USER_CHARGES

@<TRIPOS>ATOM
      1 C1          2.9928   -4.0927   -2.8226 C.3       1 <0>        -0.1462
      2 C2          1.9724   -3.7021   -1.7516 C.3       1 <0>        -0.1047
      3 H1          0.9698   -3.9610   -2.0921 H         1 <0>         0.1021
      4 C3          2.2813   -4.4524   -0.4524 C.3       1 <0>         0.1247
      5 H2          2.2805   -5.5258   -0.6421 H         1 <0>         0.0663
      6 C4          3.6608   -4.0231    0.0566 C.3       1 <0>         0.0466
      7 H3          4.4219   -4.3078   -0.6698 H         1 <0>         0.0723
      8 C5          3.6764   -2.5039    0.2452 C.3       1 <0>         0.0746
      9 H4          2.9430   -2.2239    1.0014 H         1 <0>         0.0882
     10 O1          3.3511   -1.8682   -0.9926 O.3       1 <0>        -0.3734
     11 C6          2.0521   -2.1951   -1.4943 C.3       1 <0>         0.2469
     12 H5          1.8745   -1.6574   -2.4257 H         1 <0>         0.1018
     13 O2          1.0627   -1.8228   -0.5327 O.3       1 <0>        -0.3708
     14 C7          0.8975   -0.4110   -0.3856 C.3       1 <0>         0.0286
     15 C8          5.0693   -2.0601    0.6964 C.3       1 <0>         0.0612
     16 O3          5.0533   -0.6605    0.9844 O.3       1 <0>        -0.3447
     17 C9          6.2691   -0.1701    1.5532 C.3       1 <0>         0.2488
     18 C10         6.4823   -0.8022    2.9045 C.ar      1 <0>        -0.1090
     19 C11         7.7551   -0.8795    3.4383 C.ar      1 <0>        -0.1022
     20 C12         7.9507   -1.4593    4.6778 C.ar      1 <0>        -0.1204
     21 C13         6.8734   -1.9615    5.3837 C.ar      1 <0>        -0.1135
     22 C14         5.6006   -1.8834    4.8503 C.ar      1 <0>        -0.1189
     23 C15         5.4044   -1.2997    3.6127 C.ar      1 <0>        -0.1011
     24 C16         7.4230   -0.5177    0.6483 C.ar      1 <0>        -0.1109
     25 C17         7.8861    0.4081   -0.2678 C.ar      1 <0>        -0.0879
     26 C18         8.9446    0.0893   -1.0978 C.ar      1 <0>        -0.1211
     27 C19         9.5402   -1.1551   -1.0114 C.ar      1 <0>        -0.1099
     28 C20         9.0776   -2.0806   -0.0947 C.ar      1 <0>        -0.1234
     29 C21         8.0219   -1.7603    0.7383 C.ar      1 <0>        -0.1042
     30 C22         6.1841    1.3266    1.7065 C.ar      1 <0>        -0.0703
     31 C23         7.2217    2.0206    2.3004 C.ar      1 <0>        -0.1028
     32 C24         7.1438    3.3936    2.4410 C.ar      1 <0>        -0.1210
     33 C25         6.0284    4.0726    1.9874 C.ar      1 <0>        -0.1156
     34 C26         4.9912    3.3787    1.3928 C.ar      1 <0>        -0.1223
     35 C27         5.0710    2.0063    1.2483 C.ar      1 <0>        -0.0920
     36 O4          3.9295   -4.6633    1.3056 O.3       1 <0>        -0.5569
     37 O5          1.2896   -4.1395    0.5277 O.3       1 <0>        -0.5376
     38 H6          3.9950   -3.8335   -2.4812 H         1 <0>         0.0658
     39 H7          2.9369   -5.1661   -3.0035 H         1 <0>         0.0674
     40 H8          2.7736   -3.5566   -3.7460 H         1 <0>         0.0686
     41 H9          1.8399    0.0338   -0.0661 H         1 <0>         0.0483
     42 H10         0.5969    0.0210   -1.3401 H         1 <0>         0.0383
     43 H11         0.1295   -0.2110    0.3616 H         1 <0>         0.0844
     44 H12         5.3542   -2.6121    1.5921 H         1 <0>         0.0655
     45 H13         5.7891   -2.2594   -0.0975 H         1 <0>         0.0639
     46 H14         8.5967   -0.4872    2.8868 H         1 <0>         0.1226
     47 H15         8.9452   -1.5203    5.0946 H         1 <0>         0.1234
     48 H16         7.0264   -2.4151    6.3519 H         1 <0>         0.1228
     49 H17         4.7590   -2.2760    5.4017 H         1 <0>         0.1242
     50 H18         4.4095   -1.2354    3.1976 H         1 <0>         0.1270
     51 H19         7.4208    1.3804   -0.3353 H         1 <0>         0.1247
     52 H20         9.3059    0.8124   -1.8140 H         1 <0>         0.1239
     53 H21        10.3667   -1.4045   -1.6604 H         1 <0>         0.1232
     54 H22         9.5427   -3.0530   -0.0274 H         1 <0>         0.1235
     55 H23         7.6630   -2.4820    1.4571 H         1 <0>         0.1202
     56 H24         8.0932    1.4901    2.6547 H         1 <0>         0.1204
     57 H25         7.9542    3.9356    2.9056 H         1 <0>         0.1232
     58 H26         5.9672    5.1452    2.0980 H         1 <0>         0.1221
     59 H27         4.1196    3.9092    1.0387 H         1 <0>         0.1231
     60 H28         4.2623    1.4646    0.7803 H         1 <0>         0.1323
     61 H29         4.7886   -4.4365    1.6870 H         1 <0>         0.3806
     62 H30         1.4233   -4.5812    1.3775 H         1 <0>         0.3794
@<TRIPOS>BOND
     1    1    2 1
     2    1   38 1
     3    1   39 1
     4    1   40 1
     5    2    3 1
     6    2   11 1
     7    2    4 1
     8    4    5 1
     9    4    6 1
    10    4   37 1
    11    6    7 1
    12    6    8 1
    13    6   36 1
    14    8    9 1
    15    8   10 1
    16    8   15 1
    17   10   11 1
    18   11   12 1
    19   11   13 1
    20   13   14 1
    21   14   41 1
    22   14   42 1
    23   14   43 1
    24   15   16 1
    25   15   44 1
    26   15   45 1
    27   16   17 1
    28   17   18 1
    29   17   24 1
    30   17   30 1
    31   18   23 ar
    32   18   19 ar
    33   19   20 ar
    34   19   46 1
    35   20   21 ar
    36   20   47 1
    37   21   22 ar
    38   21   48 1
    39   22   23 ar
    40   22   49 1
    41   23   50 1
    42   24   29 ar
    43   24   25 ar
    44   25   26 ar
    45   25   51 1
    46   26   27 ar
    47   26   52 1
    48   27   28 ar
    49   27   53 1
    50   28   29 ar
    51   28   54 1
    52   29   55 1
    53   30   35 ar
    54   30   31 ar
    55   31   32 ar
    56   31   56 1
    57   32   33 ar
    58   32   57 1
    59   33   34 ar
    60   33   58 1
    61   34   35 ar
    62   34   59 1
    63   35   60 1
    64   36   61 1
    65   37   62 1
@<TRIPOS>MOLECULE
ZINC58888369
   59    62     0     0     0
SMALL
USER_CHARGES

@<TRIPOS>ATOM
      1 C1          1.5268    1.3733    0.0263 C.3       1 <0>        -0.0903
      2 C2          1.0319   -0.0501    0.0170 C.2       1 <0>         0.0473
      3 C3          1.0651   -0.8833   -1.0392 C.2       1 <0>        -0.1990
      4 C4          0.4835   -2.1519   -0.5903 C.2       1 <0>        -0.1971
      5 C5          0.1428   -1.9746    0.7203 C.2       1 <0>         0.0851
      6 N1          0.4819   -0.7069    1.0808 N.pl3     1 <0>        -0.3967
      7 C6          0.2922   -0.1567    2.3525 C.ar      1 <0>         0.1103
      8 C7         -0.8847    0.4897    2.6616 C.ar      1 <0>        -0.0901
      9 C8         -1.0836    1.0412    3.9238 C.ar      1 <0>        -0.1150
     10 C9         -0.1241    0.9581    4.8863 C.ar      1 <0>        -0.0843
     11 C10         1.0902    0.3068    4.6116 C.ar      1 <0>        -0.0479
     12 C11         1.3017   -0.2636    3.3320 C.ar      1 <0>        -0.0387
     13 C12         2.5133   -0.9187    3.0609 C.ar      1 <0>        -0.1068
     14 C13         3.4656   -1.0030    4.0304 C.ar      1 <0>        -0.1039
     15 C14         3.2562   -0.4476    5.2912 C.ar      1 <0>        -0.1108
     16 C15         2.0991    0.2060    5.5854 C.ar      1 <0>        -0.1022
     17 C16        -0.4932   -3.0071    1.6150 C.3       1 <0>        -0.0938
     18 C17         0.3019   -3.3745   -1.3934 C.2       1 <0>         0.1516
     19 N2          0.2785   -3.3024   -2.6893 N.2       1 <0>        -0.2408
     20 N3          0.2410   -2.0522   -3.3207 N.am      1 <0>        -0.5883
     21 C18         0.3367   -1.9719   -4.6626 C.2       1 <0>         0.5226
     22 O1          0.4552   -2.9822   -5.3239 O.2       1 <0>        -0.5100
     23 C19         0.2964   -0.6272   -5.3418 C.3       1 <0>        -0.1326
     24 C20         0.4232   -0.8160   -6.8548 C.3       1 <0>        -0.1302
     25 C21         0.3823    0.5492   -7.5443 C.3       1 <0>         0.1481
     26 H1         -0.5224    1.0795   -7.2468 H         1 <0>         0.1094
     27 C22         0.3835    0.3572   -9.0390 C.ar      1 <0>        -0.1166
     28 C23         1.5676    0.0912   -9.7007 C.ar      1 <0>        -0.1115
     29 C24         1.5687   -0.0849  -11.0718 C.ar      1 <0>        -0.1163
     30 C25         0.3856    0.0047  -11.7811 C.ar      1 <0>        -0.1192
     31 C26        -0.7987    0.2699  -11.1193 C.ar      1 <0>        -0.1173
     32 C27        -0.8004    0.4417   -9.7477 C.ar      1 <0>        -0.1099
     33 O2          1.5289    1.3110   -7.1609 O.3       1 <0>        -0.5544
     34 H2          2.5792    1.3902    0.3096 H         1 <0>         0.0748
     35 H3          1.4112    1.8048   -0.9679 H         1 <0>         0.0843
     36 H4          0.9480    1.9545    0.7442 H         1 <0>         0.0666
     37 H5          1.4458   -0.6608   -2.0251 H         1 <0>         0.1464
     38 H6         -1.6617    0.5697    1.9157 H         1 <0>         0.1309
     39 H7         -2.0141    1.5437    4.1433 H         1 <0>         0.1348
     40 H8         -0.2961    1.3928    5.8599 H         1 <0>         0.1357
     41 H9          2.6891   -1.3541    2.0883 H         1 <0>         0.1260
     42 H10         4.3967   -1.5079    3.8193 H         1 <0>         0.1271
     43 H11         4.0275   -0.5282    6.0428 H         1 <0>         0.1282
     44 H12         1.9509    0.6322    6.5666 H         1 <0>         0.1331
     45 H13         0.2852   -3.5867    2.1114 H         1 <0>         0.0800
     46 H14        -1.1089   -2.5091    2.3640 H         1 <0>         0.0688
     47 H15        -1.1158   -3.6724    1.0167 H         1 <0>         0.0877
     48 H16         0.1883   -4.3304   -0.9037 H         1 <0>         0.1791
     49 H17         0.1463   -1.2445   -2.7920 H         1 <0>         0.3949
     50 H18        -0.6488   -0.1339   -5.1151 H         1 <0>         0.0971
     51 H19         1.1220   -0.0135   -4.9817 H         1 <0>         0.1027
     52 H20         1.3684   -1.3093   -7.0814 H         1 <0>         0.0778
     53 H21        -0.4025   -1.4298   -7.2148 H         1 <0>         0.0845
     54 H22         2.4920    0.0212   -9.1466 H         1 <0>         0.1197
     55 H23         2.4940   -0.2921  -11.5889 H         1 <0>         0.1237
     56 H24         0.3866   -0.1321  -12.8524 H         1 <0>         0.1229
     57 H25        -1.7229    0.3402  -11.6735 H         1 <0>         0.1239
     58 H26        -1.7262    0.6452   -9.2301 H         1 <0>         0.1235
     59 H27         2.3715    0.8983   -7.3949 H         1 <0>         0.3751
@<TRIPOS>BOND
     1    1    2 1
     2    1   34 1
     3    1   35 1
     4    1   36 1
     5    2    6 1
     6    2    3 2
     7    3    4 1
     8    3   37 1
     9    4    5 2
    10    4   18 1
    11    5    6 1
    12    5   17 1
    13    6    7 1
    14    7   12 ar
    15    7    8 ar
    16    8    9 ar
    17    8   38 1
    18    9   10 ar
    19    9   39 1
    20   10   11 ar
    21   10   40 1
    22   11   16 ar
    23   11   12 ar
    24   12   13 ar
    25   13   14 ar
    26   13   41 1
    27   14   15 ar
    28   14   42 1
    29   15   16 ar
    30   15   43 1
    31   16   44 1
    32   17   45 1
    33   17   46 1
    34   17   47 1
    35   18   19 2
    36   18   48 1
    37   19   20 1
    38   20   21 am
    39   20   49 1
    40   21   22 2
    41   21   23 1
    42   23   24 1
    43   23   50 1
    44   23   51 1
    45   24   25 1
    46   24   52 1
    47   24   53 1
    48   25   26 1
    49   25   27 1
    50   25   33 1
    51   27   32 ar
    52   27   28 ar
    53   28   29 ar
    54   28   54 1
    55   29   30 ar
    56   29   55 1
    57   30   31 ar
    58   30   56 1
    59   31   32 ar
    60   31   57 1
    61   32   58 1
    62   33   59 1
@<TRIPOS>MOLECULE
ZINC08456080
   54    56     0     0     0
SMALL
USER_CHARGES
3-chloro-6-ethyl-N-[1-[3-(2-methylpropanoylamino)phenyl]ethylideneamino]benzothiophene-2-carboxamide
@<TRIPOS>ATOM
      1 C1        -11.0758   -6.3004    1.3547 C.3       1 <0>        -0.1493
      2 C2        -10.5832   -6.1499   -0.0859 C.3       1 <0>        -0.0887
      3 C3         -9.1343   -5.7357   -0.0807 C.ar      1 <0>        -0.0300
      4 C4         -8.1312   -6.6975   -0.0860 C.ar      1 <0>        -0.1201
      5 C5         -6.8171   -6.3557   -0.0810 C.ar      1 <0>        -0.0457
      6 C6         -6.4216   -4.9933   -0.0697 C.ar      1 <0>        -0.1154
      7 C7         -7.4634   -4.0360   -0.0646 C.ar      1 <0>        -0.0815
      8 C8         -8.7937   -4.3984   -0.0702 C.ar      1 <0>        -0.0838
      9 S1         -6.6005   -2.4848   -0.0502 S.3       1 <0>         0.0924
     10 C9         -4.9317   -3.1164   -0.0513 C.2       1 <0>        -0.2013
     11 C10        -5.1169   -4.4650   -0.0680 C.2       1 <0>         0.0349
     12 Cl1        -3.7468   -5.5310   -0.0817 Cl        1 <0>        -0.0145
     13 C11        -3.6701   -2.3666   -0.0427 C.2       1 <0>         0.6170
     14 O1         -2.6084   -2.9618   -0.0453 O.2       1 <0>        -0.4603
     15 N1         -3.6871   -1.0190   -0.0320 N.am      1 <0>        -0.5760
     16 N2         -2.4828   -0.3033   -0.0239 N.2       1 <0>        -0.2153
     17 C12        -2.4992    0.9944   -0.0136 C.2       1 <0>         0.1374
     18 C13        -3.8138    1.7314   -0.0103 C.3       1 <0>        -0.1586
     19 C14        -1.2315    1.7479   -0.0050 C.ar      1 <0>        -0.0315
     20 C15        -1.2461    3.1452    0.0115 C.ar      1 <0>        -0.1077
     21 C16        -0.0585    3.8471    0.0133 C.ar      1 <0>        -0.1032
     22 C17         1.1487    3.1730    0.0045 C.ar      1 <0>        -0.1294
     23 C18         1.1745    1.7835   -0.0061 C.ar      1 <0>         0.1400
     24 C19        -0.0126    1.0680   -0.0080 C.ar      1 <0>        -0.0820
     25 N3          2.3994    1.1067   -0.0154 N.am      1 <0>        -0.6764
     26 C20         2.5294   -0.0603    0.6461 C.2       1 <0>         0.5123
     27 O2          1.5644   -0.5662    1.1790 O.2       1 <0>        -0.5058
     28 C21         3.8739   -0.7367    0.7237 C.3       1 <0>        -0.1120
     29 C22         4.8735    0.1931    1.4145 C.3       1 <0>        -0.1456
     30 C23         3.7466   -2.0341    1.5247 C.3       1 <0>        -0.1359
     31 H1        -10.4827   -7.0598    1.8641 H         1 <0>         0.0586
     32 H2        -10.9720   -5.3485    1.8755 H         1 <0>         0.0578
     33 H3        -12.1239   -6.6000    1.3510 H         1 <0>         0.0637
     34 H4        -11.1764   -5.3904   -0.5953 H         1 <0>         0.0794
     35 H5        -10.6871   -7.1018   -0.6067 H         1 <0>         0.0810
     36 H6         -8.4036   -7.7426   -0.0946 H         1 <0>         0.1357
     37 H7         -6.0642   -7.1299   -0.0854 H         1 <0>         0.1350
     38 H8         -9.5636   -3.6410   -0.0657 H         1 <0>         0.1395
     39 H9         -4.5332   -0.5447   -0.0299 H         1 <0>         0.3849
     40 H10        -4.1286    1.9172   -1.0372 H         1 <0>         0.0911
     41 H11        -4.5669    1.1286    0.4972 H         1 <0>         0.0691
     42 H12        -3.6965    2.6812    0.5113 H         1 <0>         0.0937
     43 H13        -2.1870    3.6755    0.0184 H         1 <0>         0.1319
     44 H14        -0.0717    4.9270    0.0218 H         1 <0>         0.1331
     45 H15         2.0750    3.7283    0.0056 H         1 <0>         0.1285
     46 H16         0.0056   -0.0118   -0.0162 H         1 <0>         0.1547
     47 H17         3.1547    1.4774   -0.4980 H         1 <0>         0.4115
     48 H18         4.2248   -0.9641   -0.2828 H         1 <0>         0.1007
     49 H19         5.8459   -0.2961    1.4706 H         1 <0>         0.0717
     50 H20         4.9641    1.1174    0.8438 H         1 <0>         0.0594
     51 H21         4.5225    0.4205    2.4211 H         1 <0>         0.0624
     52 H22         3.0345   -2.6965    1.0326 H         1 <0>         0.0647
     53 H23         4.7190   -2.5233    1.5808 H         1 <0>         0.0644
     54 H24         3.3956   -1.8067    2.5313 H         1 <0>         0.0634
@<TRIPOS>BOND
     1    1    2 1
     2    1   31 1
     3    1   32 1
     4    1   33 1
     5    2    3 1
     6    2   34 1
     7    2   35 1
     8    3    8 ar
     9    3    4 ar
    10    4    5 ar
    11    4   36 1
    12    5    6 ar
    13    5   37 1
    14    6   11 1
    15    6    7 ar
    16    7    8 ar
    17    7    9 1
    18    8   38 1
    19    9   10 1
    20   10   11 2
    21   10   13 1
    22   11   12 1
    23   13   14 2
    24   13   15 am
    25   15   16 1
    26   15   39 1
    27   16   17 2
    28   17   18 1
    29   17   19 1
    30   18   40 1
    31   18   41 1
    32   18   42 1
    33   19   24 ar
    34   19   20 ar
    35   20   21 ar
    36   20   43 1
    37   21   22 ar
    38   21   44 1
    39   22   23 ar
    40   22   45 1
    41   23   24 ar
    42   23   25 1
    43   24   46 1
    44   25   26 am
    45   25   47 1
    46   26   27 2
    47   26   28 1
    48   28   29 1
    49   28   30 1
    50   28   48 1
    51   29   49 1
    52   29   50 1
    53   29   51 1
    54   30   52 1
    55   30   53 1
    56   30   54 1
@<TRIPOS>MOLECULE
ZINC12494274
   53    56     0     0     0
SMALL
USER_CHARGES
methyl 2-[(4-phenylbenzoyl)carbamothioylamino]-4,5,6,7-tetrahydrobenzothiophene-3-carboxylate
@<TRIPOS>ATOM
      1 C1          6.1480   -8.7197    1.0249 C.3       1 <0>         0.0304
      2 O1          7.2489   -7.7750    1.0875 O.3       1 <0>        -0.3514
      3 C2          7.7469   -7.3362   -0.0868 C.2       1 <0>         0.5250
      4 O2          7.2731   -7.7330   -1.1346 O.2       1 <0>        -0.4939
      5 C3          8.8574   -6.3825   -0.1003 C.2       1 <0>        -0.1693
      6 C4         10.2391   -6.8338   -0.1213 C.2       1 <0>        -0.0784
      7 C5         11.1652   -5.8512   -0.1249 C.2       1 <0>        -0.2385
      8 S1         10.2308   -4.3476   -0.1093 S.3       1 <0>         0.3366
      9 C6          8.6307   -5.0120   -0.0979 C.2       1 <0>         0.0236
     10 N1          7.4198   -4.3399   -0.0836 N.pl3     1 <0>        -0.5555
     11 C7          7.3970   -2.9924   -0.0776 C.2       1 <0>         0.4783
     12 S2          8.8649   -2.1114   -0.0874 S.2       1 <0>        -0.3716
     13 N2          6.2186   -2.3384   -0.0637 N.am      1 <0>        -0.6333
     14 C8          6.1958   -0.9908   -0.0576 C.2       1 <0>         0.5405
     15 O3          7.2380   -0.3654   -0.0646 O.2       1 <0>        -0.4041
     16 C9          4.9050   -0.2744   -0.0424 C.ar      1 <0>        -0.1419
     17 C10         4.8807    1.1228   -0.0361 C.ar      1 <0>        -0.0427
     18 C11         3.6765    1.7896   -0.0224 C.ar      1 <0>        -0.1174
     19 C12         2.4807    1.0711   -0.0149 C.ar      1 <0>        -0.0033
     20 C13         2.5036   -0.3239   -0.0158 C.ar      1 <0>        -0.1180
     21 C14         3.7064   -0.9930   -0.0349 C.ar      1 <0>        -0.0823
     22 C15         1.1843    1.7905    0.0004 C.ar      1 <0>        -0.0627
     23 C16        -0.0126    1.0758    0.0080 C.ar      1 <0>        -0.1038
     24 C17        -1.2162    1.7508    0.0173 C.ar      1 <0>        -0.1190
     25 C18        -1.2364    3.1340    0.0293 C.ar      1 <0>        -0.1096
     26 C19        -0.0519    3.8485    0.0223 C.ar      1 <0>        -0.1181
     27 C20         1.1576    3.1843    0.0076 C.ar      1 <0>        -0.1026
     28 C21        12.6540   -6.0133   -0.1382 C.3       1 <0>        -0.0379
     29 C22        12.9858   -7.4666    0.2304 C.3       1 <0>        -0.1174
     30 C23        12.1034   -8.4006   -0.6028 C.3       1 <0>        -0.1165
     31 C24        10.6512   -8.3007   -0.1325 C.3       1 <0>        -0.0642
     32 H1          5.3071   -8.2636    0.5023 H         1 <0>         0.0619
     33 H2          6.4667   -9.6140    0.4894 H         1 <0>         0.0665
     34 H3          5.8437   -8.9906    2.0359 H         1 <0>         0.1048
     35 H4          6.5881   -4.8391   -0.0781 H         1 <0>         0.4125
     36 H5          5.3869   -2.8376   -0.0581 H         1 <0>         0.4147
     37 H6          5.8063    1.6793   -0.0416 H         1 <0>         0.1455
     38 H7          3.6575    2.8694   -0.0172 H         1 <0>         0.1390
     39 H8          1.5772   -0.8790   -0.0058 H         1 <0>         0.1361
     40 H9          3.7239   -2.0728   -0.0397 H         1 <0>         0.1244
     41 H10         0.0021   -0.0041    0.0020 H         1 <0>         0.1265
     42 H11        -2.1440    1.1982    0.0191 H         1 <0>         0.1270
     43 H12        -2.1807    3.6581    0.0404 H         1 <0>         0.1258
     44 H13        -0.0738    4.9283    0.0279 H         1 <0>         0.1277
     45 H14         2.0818    3.7432    0.0014 H         1 <0>         0.1283
     46 H15        13.0388   -5.7899   -1.1333 H         1 <0>         0.0820
     47 H16        13.1035   -5.3376    0.5894 H         1 <0>         0.0809
     48 H17        14.0354   -7.6675    0.0156 H         1 <0>         0.0705
     49 H18        12.7926   -7.6278    1.2910 H         1 <0>         0.0670
     50 H19        12.1644   -8.1151   -1.6530 H         1 <0>         0.0664
     51 H20        12.4509   -9.4271   -0.4858 H         1 <0>         0.0675
     52 H21        10.0072   -8.8560   -0.8145 H         1 <0>         0.0681
     53 H22        10.5631   -8.7149    0.8719 H         1 <0>         0.0757
@<TRIPOS>BOND
     1    1    2 1
     2    1   32 1
     3    1   33 1
     4    1   34 1
     5    2    3 1
     6    3    4 2
     7    3    5 1
     8    5    9 2
     9    5    6 1
    10    6   31 1
    11    6    7 2
    12    7    8 1
    13    7   28 1
    14    8    9 1
    15    9   10 1
    16   10   11 1
    17   10   35 1
    18   11   12 2
    19   11   13 1
    20   13   14 am
    21   13   36 1
    22   14   15 2
    23   14   16 1
    24   16   21 ar
    25   16   17 ar
    26   17   18 ar
    27   17   37 1
    28   18   19 ar
    29   18   38 1
    30   19   20 ar
    31   19   22 1
    32   20   21 ar
    33   20   39 1
    34   21   40 1
    35   22   27 ar
    36   22   23 ar
    37   23   24 ar
    38   23   41 1
    39   24   25 ar
    40   24   42 1
    41   25   26 ar
    42   25   43 1
    43   26   27 ar
    44   26   44 1
    45   27   45 1
    46   28   29 1
    47   28   46 1
    48   28   47 1
    49   29   30 1
    50   29   48 1
    51   29   49 1
    52   30   31 1
    53   30   50 1
    54   30   51 1
    55   31   52 1
    56   31   53 1
@<TRIPOS>MOLECULE
ZINC18580930
   53    55     0     0     0
SMALL
USER_CHARGES
(2R)-N-(2,6-difluorophenyl)-2-[[6-methyl-5-[(2S)-2-methylbutyl]-4-oxo-3H-thieno[5,4-d]pyrimidin-2-yl]sulfanyl]propanamide
@<TRIPOS>ATOM
      1 C1         -2.1824    0.3604    5.4180 C.3       1 <0>        -0.1535
      2 C2         -1.0649    1.2158    6.0182 C.3       1 <0>        -0.1183
      3 C3          0.0382    1.4173    4.9773 C.3       1 <0>        -0.0771
      4 H1         -0.3920    1.8392    4.0690 H         1 <0>         0.0649
      5 C4          0.6881    0.0700    4.6558 C.3       1 <0>        -0.1477
      6 C5          1.0952    2.3737    5.5330 C.3       1 <0>        -0.0703
      7 C6          2.1168    2.6687    4.4651 C.2       1 <0>        -0.0484
      8 C7          1.9460    3.7046    3.6306 C.2       1 <0>        -0.1606
      9 S1          3.3856    3.6332    2.5815 S.3       1 <0>         0.1359
     10 C8          4.1758    2.2132    3.2944 C.2       1 <0>         0.1116
     11 C9          3.3010    1.8377    4.3315 C.2       1 <0>        -0.2398
     12 C10         3.6924    0.6904    5.0910 C.2       1 <0>         0.5606
     13 O1          2.9953    0.2891    6.0070 O.2       1 <0>        -0.5056
     14 N1          4.8429    0.0631    4.7848 N.am      1 <0>        -0.6195
     15 H2          5.1132   -0.7132    5.2997 H         1 <0>         0.4239
     16 C11         5.6363    0.4982    3.7630 C.2       1 <0>         0.3641
     17 N2          5.2977    1.5494    3.0443 N.2       1 <0>        -0.4965
     18 S2          7.1337   -0.3569    3.4005 S.3       1 <0>         0.0930
     19 C12         7.7333    0.6348    2.0102 C.3       1 <0>        -0.1058
     20 H3          7.7944    1.6810    2.3098 H         1 <0>         0.1359
     21 C13         6.7673    0.4974    0.8317 C.3       1 <0>        -0.1485
     22 C14         9.0994    0.1493    1.5991 C.2       1 <0>         0.5427
     23 O2          9.4330   -0.9931    1.8334 O.2       1 <0>        -0.5016
     24 N3          9.9507    0.9845    0.9712 N.am      1 <0>        -0.6709
     25 C15        11.2573    0.5670    0.6829 C.ar      1 <0>         0.0574
     26 C16        12.2726    0.7643    1.6113 C.ar      1 <0>         0.1405
     27 C17        13.5598    0.3456    1.3255 C.ar      1 <0>        -0.1582
     28 C18        13.8391   -0.2584    0.1135 C.ar      1 <0>        -0.0491
     29 C19        12.8330   -0.4509   -0.8152 C.ar      1 <0>        -0.1586
     30 C20        11.5421   -0.0401   -0.5344 C.ar      1 <0>         0.1424
     31 F1         10.5598   -0.2286   -1.4425 F         1 <0>        -0.1215
     32 F2         12.0017    1.3594    2.7936 F         1 <0>        -0.1220
     33 C21         0.8090    4.6928    3.5896 C.3       1 <0>        -0.0687
     34 H4         -1.7797   -0.6087    5.1232 H         1 <0>         0.0558
     35 H5         -2.9683    0.2169    6.1595 H         1 <0>         0.0528
     36 H6         -2.5953    0.8634    4.5436 H         1 <0>         0.0520
     37 H7         -0.6520    0.7128    6.8926 H         1 <0>         0.0636
     38 H8         -1.4676    2.1849    6.3130 H         1 <0>         0.0603
     39 H9          1.1183   -0.3519    5.5641 H         1 <0>         0.0752
     40 H10         1.4740    0.2135    3.9142 H         1 <0>         0.0407
     41 H11        -0.0649   -0.6114    4.2599 H         1 <0>         0.0472
     42 H12         0.6170    3.3023    5.8447 H         1 <0>         0.0717
     43 H13         1.5876    1.9132    6.3895 H         1 <0>         0.0899
     44 H14         5.7792    0.8486    1.1290 H         1 <0>         0.0970
     45 H15         7.1284    1.0947   -0.0056 H         1 <0>         0.0775
     46 H16         6.7061   -0.5488    0.5320 H         1 <0>         0.0740
     47 H17         9.6591    1.8745    0.7187 H         1 <0>         0.4176
     48 H18        14.3484    0.4946    2.0482 H         1 <0>         0.1507
     49 H19        14.8458   -0.5804   -0.1084 H         1 <0>         0.1511
     50 H20        13.0551   -0.9227   -1.7609 H         1 <0>         0.1506
     51 H21         1.0415    5.5411    4.2334 H         1 <0>         0.0808
     52 H22         0.6672    5.0412    2.5666 H         1 <0>         0.0761
     53 H23        -0.1040    4.2109    3.9392 H         1 <0>         0.0850
@<TRIPOS>BOND
     1    1    2 1
     2    1   34 1
     3    1   35 1
     4    1   36 1
     5    2    3 1
     6    2   37 1
     7    2   38 1
     8    3    4 1
     9    3    5 1
    10    3    6 1
    11    5   39 1
    12    5   40 1
    13    5   41 1
    14    6    7 1
    15    6   42 1
    16    6   43 1
    17    7   11 1
    18    7    8 2
    19    8    9 1
    20    8   33 1
    21    9   10 1
    22   10   17 1
    23   10   11 2
    24   11   12 1
    25   12   13 2
    26   12   14 am
    27   14   15 1
    28   14   16 1
    29   16   17 2
    30   16   18 1
    31   18   19 1
    32   19   20 1
    33   19   21 1
    34   19   22 1
    35   21   44 1
    36   21   45 1
    37   21   46 1
    38   22   23 2
    39   22   24 am
    40   24   25 1
    41   24   47 1
    42   25   30 ar
    43   25   26 ar
    44   26   27 ar
    45   26   32 1
    46   27   28 ar
    47   27   48 1
    48   28   29 ar
    49   28   49 1
    50   29   30 ar
    51   29   50 1
    52   30   31 1
    53   33   51 1
    54   33   52 1
    55   33   53 1
@<TRIPOS>MOLECULE
ZINC34710990
   63    65     0     0     0
SMALL
USER_CHARGES

@<TRIPOS>ATOM
      1 C1         -1.2301   -6.1433    2.3288 C.3       1 <0>        -0.1534
      2 C2         -0.7784   -4.9428    1.4948 C.3       1 <0>        -0.1207
      3 C3         -0.0619   -5.4367    0.2364 C.3       1 <0>        -0.1328
      4 C4          0.3898   -4.2361   -0.5976 C.3       1 <0>         0.1375
      5 N1          1.0759   -4.7090   -1.8026 N.am      1 <0>        -0.7471
      6 C5          1.5637   -3.8219   -2.6922 C.2       1 <0>         0.7101
      7 O1          1.3561   -2.6333   -2.5419 O.2       1 <0>        -0.5851
      8 N2          2.2817   -4.2523   -3.7486 N.am      1 <0>        -0.6283
      9 C6          2.4397   -5.6893   -4.0108 C.3       1 <0>         0.1206
     10 C7          2.0079   -5.9779   -5.4520 C.3       1 <0>        -0.0760
     11 H1          0.9414   -5.7800   -5.5588 H         1 <0>         0.1162
     12 C8          2.7930   -5.0748   -6.4060 C.3       1 <0>        -0.0873
     13 C9          2.4841   -3.6088   -6.0936 C.3       1 <0>        -0.1279
     14 H2          3.0254   -2.9668   -6.7886 H         1 <0>         0.1134
     15 C10         2.9162   -3.2933   -4.6632 C.3       1 <0>         0.1366
     16 C11         1.0034   -3.3659   -6.2337 C.2       1 <0>         0.5256
     17 O2          0.2671   -4.2756   -6.5521 O.2       1 <0>        -0.5332
     18 N3          0.4974   -2.1378   -6.0052 N.am      1 <0>        -0.7188
     19 C12        -0.9420   -1.9017   -6.1414 C.3       1 <0>         0.1680
     20 C13        -1.2456   -0.4580   -5.8336 C.ar      1 <0>        -0.1449
     21 C14        -1.7337   -0.1041   -4.5899 C.ar      1 <0>        -0.0648
     22 C15        -2.0122    1.2199   -4.3073 C.ar      1 <0>        -0.1303
     23 C16        -1.8029    2.1919   -5.2682 C.ar      1 <0>        -0.0815
     24 C17        -1.3146    1.8405   -6.5121 C.ar      1 <0>        -0.1572
     25 C18        -1.0302    0.5149   -6.7946 C.ar      1 <0>         0.1138
     26 F1         -0.5483    0.1708   -8.0089 F         1 <0>        -0.1344
     27 C19         2.2871   -7.4218   -5.7811 C.ar      1 <0>        -0.0693
     28 C20         3.5788   -7.9095   -5.7109 C.ar      1 <0>        -0.1233
     29 C21         3.8348   -9.2338   -6.0127 C.ar      1 <0>        -0.1143
     30 C22         2.7991  -10.0708   -6.3845 C.ar      1 <0>        -0.1238
     31 C23         1.5076   -9.5834   -6.4539 C.ar      1 <0>        -0.0835
     32 C24         1.2509   -8.2598   -6.1478 C.ar      1 <0>        -0.1094
     33 C25         0.3788  -10.4956   -6.8596 C.3       1 <0>        -0.1170
     34 H3         -1.9111   -6.7586    1.7408 H         1 <0>         0.0545
     35 H4         -0.3605   -6.7352    2.6145 H         1 <0>         0.0545
     36 H5         -1.7406   -5.7915    3.2254 H         1 <0>         0.0568
     37 H6         -1.6480   -4.3510    1.2092 H         1 <0>         0.0654
     38 H7         -0.0974   -4.3275    2.0828 H         1 <0>         0.0655
     39 H8          0.8077   -6.0285    0.5220 H         1 <0>         0.0687
     40 H9         -0.7429   -6.0519   -0.3516 H         1 <0>         0.0686
     41 H10        -0.4798   -3.6443   -0.8832 H         1 <0>         0.0658
     42 H11         1.0708   -3.6208   -0.0096 H         1 <0>         0.0656
     43 H12         1.1790   -5.6605   -1.9601 H         1 <0>         0.3955
     44 H13         3.4840   -5.9722   -3.8786 H         1 <0>         0.0726
     45 H14         1.8150   -6.2574   -3.3215 H         1 <0>         0.0762
     46 H15         3.8607   -5.2555   -6.2811 H         1 <0>         0.0742
     47 H16         2.5055   -5.2954   -7.4340 H         1 <0>         0.0768
     48 H17         2.6057   -2.2810   -4.4042 H         1 <0>         0.0986
     49 H18         4.0002   -3.3765   -4.5854 H         1 <0>         0.0806
     50 H19         1.0863   -1.4103   -5.7505 H         1 <0>         0.4016
     51 H20        -1.2526   -2.1289   -7.1612 H         1 <0>         0.0782
     52 H21        -1.4829   -2.5430   -5.4455 H         1 <0>         0.0785
     53 H22        -1.8979   -0.8625   -3.8386 H         1 <0>         0.1341
     54 H23        -2.3939    1.4955   -3.3353 H         1 <0>         0.1325
     55 H24        -2.0215    3.2260   -5.0465 H         1 <0>         0.1350
     56 H25        -1.1514    2.5998   -7.2626 H         1 <0>         0.1375
     57 H26         4.3879   -7.2557   -5.4205 H         1 <0>         0.1196
     58 H27         4.8440   -9.6146   -5.9586 H         1 <0>         0.1210
     59 H28         2.9993  -11.1054   -6.6211 H         1 <0>         0.1199
     60 H29         0.2412   -7.8799   -6.1983 H         1 <0>         0.1215
     61 H30        -0.0421  -10.9694   -5.9727 H         1 <0>         0.0703
     62 H31        -0.3944   -9.9152   -7.3629 H         1 <0>         0.0667
     63 H32         0.7563  -11.2620   -7.5364 H         1 <0>         0.0663
@<TRIPOS>BOND
     1    1    2 1
     2    1   34 1
     3    1   35 1
     4    1   36 1
     5    2    3 1
     6    2   37 1
     7    2   38 1
     8    3    4 1
     9    3   39 1
    10    3   40 1
    11    4    5 1
    12    4   41 1
    13    4   42 1
    14    5    6 am
    15    5   43 1
    16    6    7 2
    17    6    8 am
    18    8   15 1
    19    8    9 1
    20    9   10 1
    21    9   44 1
    22    9   45 1
    23   10   11 1
    24   10   12 1
    25   10   27 1
    26   12   13 1
    27   12   46 1
    28   12   47 1
    29   13   14 1
    30   13   15 1
    31   13   16 1
    32   15   48 1
    33   15   49 1
    34   16   17 2
    35   16   18 am
    36   18   19 1
    37   18   50 1
    38   19   20 1
    39   19   51 1
    40   19   52 1
    41   20   25 ar
    42   20   21 ar
    43   21   22 ar
    44   21   53 1
    45   22   23 ar
    46   22   54 1
    47   23   24 ar
    48   23   55 1
    49   24   25 ar
    50   24   56 1
    51   25   26 1
    52   27   32 ar
    53   27   28 ar
    54   28   29 ar
    55   28   57 1
    56   29   30 ar
    57   29   58 1
    58   30   31 ar
    59   30   59 1
    60   31   32 ar
    61   31   33 1
    62   32   60 1
    63   33   61 1
    64   33   62 1
    65   33   63 1
@<TRIPOS>MOLECULE
ZINC39264693
   50    52     0     0     0
SMALL
USER_CHARGES

@<TRIPOS>ATOM
      1 C1          0.6972    1.5211    0.3851 C.3       1 <0>        -0.1544
      2 C2          0.7502   -0.0080    0.3874 C.3       1 <0>        -0.1266
      3 C3          1.3001   -0.5013   -0.9524 C.3       1 <0>        -0.1197
      4 C4          1.3531   -2.0303   -0.9501 C.3       1 <0>        -0.1180
      5 C5          1.9029   -2.5236   -2.2900 C.3       1 <0>        -0.1320
      6 C6          1.9559   -4.0527   -2.2877 C.3       1 <0>         0.1180
      7 N1          2.4825   -4.5250   -3.5706 N.am      1 <0>        -0.7277
      8 C7          2.6192   -5.8465   -3.7975 C.2       1 <0>         0.5587
      9 O1          2.3057   -6.6464   -2.9376 O.2       1 <0>        -0.5291
     10 C8          3.1506   -6.3232   -5.0923 C.ar      1 <0>        -0.1162
     11 C9          3.5168   -5.4062   -6.0794 C.ar      1 <0>        -0.1008
     12 C10         4.0125   -5.8534   -7.2870 C.ar      1 <0>        -0.1039
     13 C11         4.1485   -7.2085   -7.5245 C.ar      1 <0>        -0.1192
     14 C12         3.7873   -8.1295   -6.5484 C.ar      1 <0>         0.1425
     15 C13         3.2931   -7.6899   -5.3295 C.ar      1 <0>        -0.0512
     16 N2          3.9267   -9.4989   -6.7934 N.pl3     1 <0>        -0.6366
     17 C14         3.0360  -10.3935   -6.2369 C.ar      1 <0>         0.4711
     18 C15         3.2258  -11.7904   -6.3748 C.ar      1 <0>        -0.1908
     19 C16         4.3125  -12.3281   -7.0728 C.ar      1 <0>        -0.0380
     20 C17         4.4434  -13.6829   -7.1722 C.ar      1 <0>        -0.1027
     21 C18         3.5096  -14.5360   -6.5887 C.ar      1 <0>        -0.0538
     22 C19         2.4403  -14.0427   -5.9022 C.ar      1 <0>        -0.0955
     23 C20         2.2758  -12.6562   -5.7804 C.ar      1 <0>         0.2002
     24 N3          1.2418  -12.1193   -5.1153 N.ar      1 <0>        -0.5431
     25 C21         1.1167  -10.8170   -5.0197 C.ar      1 <0>         0.3574
     26 N4          1.9815   -9.9691   -5.5536 N.ar      1 <0>        -0.5760
     27 Br1         5.9115  -14.4118   -8.1153 Br        1 <0>        -0.0372
     28 H1          1.7008    1.9192    0.2355 H         1 <0>         0.0534
     29 H2          0.0475    1.8609   -0.4215 H         1 <0>         0.0535
     30 H3          0.3054    1.8725    1.3397 H         1 <0>         0.0540
     31 H4          1.3998   -0.3478    1.1940 H         1 <0>         0.0614
     32 H5         -0.2534   -0.4061    0.5370 H         1 <0>         0.0615
     33 H6          0.6504   -0.1614   -1.7590 H         1 <0>         0.0621
     34 H7          2.3037   -0.1031   -1.1020 H         1 <0>         0.0619
     35 H8          2.0027   -2.3701   -0.1435 H         1 <0>         0.0661
     36 H9          0.3495   -2.4285   -0.8005 H         1 <0>         0.0664
     37 H10         1.2533   -2.1838   -3.0966 H         1 <0>         0.0699
     38 H11         2.9065   -2.1255   -2.4396 H         1 <0>         0.0696
     39 H12         2.6056   -4.3925   -1.4811 H         1 <0>         0.0695
     40 H13         0.9523   -4.4508   -2.1381 H         1 <0>         0.0701
     41 H14         2.7326   -3.8867   -4.2568 H         1 <0>         0.3999
     42 H15         3.4118   -4.3467   -5.8979 H         1 <0>         0.1276
     43 H16         4.2949   -5.1424   -8.0494 H         1 <0>         0.1358
     44 H17         4.5364   -7.5526   -8.4719 H         1 <0>         0.1315
     45 H18         3.0157   -8.4038   -4.5680 H         1 <0>         0.1526
     46 H19         4.6498   -9.8201   -7.3547 H         1 <0>         0.4231
     47 H20         5.0421  -11.6761   -7.5299 H         1 <0>         0.1358
     48 H21         3.6346  -15.6047   -6.6818 H         1 <0>         0.1453
     49 H22         1.7244  -14.7162   -5.4547 H         1 <0>         0.1521
     50 H23         0.2720  -10.4187   -4.4773 H         1 <0>         0.2016
@<TRIPOS>BOND
     1    1    2 1
     2    1   28 1
     3    1   29 1
     4    1   30 1
     5    2    3 1
     6    2   31 1
     7    2   32 1
     8    3    4 1
     9    3   33 1
    10    3   34 1
    11    4    5 1
    12    4   35 1
    13    4   36 1
    14    5    6 1
    15    5   37 1
    16    5   38 1
    17    6    7 1
    18    6   39 1
    19    6   40 1
    20    7    8 am
    21    7   41 1
    22    8    9 2
    23    8   10 1
    24   10   15 ar
    25   10   11 ar
    26   11   12 ar
    27   11   42 1
    28   12   13 ar
    29   12   43 1
    30   13   14 ar
    31   13   44 1
    32   14   15 ar
    33   14   16 1
    34   15   45 1
    35   16   17 1
    36   16   46 1
    37   17   26 ar
    38   17   18 ar
    39   18   23 ar
    40   18   19 ar
    41   19   20 ar
    42   19   47 1
    43   20   21 ar
    44   20   27 1
    45   21   22 ar
    46   21   48 1
    47   22   23 ar
    48   22   49 1
    49   23   24 ar
    50   24   25 ar
    51   25   26 ar
    52   25   50 1
@<TRIPOS>MOLECULE
ZINC08833201
   48    51     0     0     0
SMALL
USER_CHARGES
5-(3,4-dichlorophenyl)-N-[[3-[5-(hydroxymethyl)-2-furyl]phenyl]thiocarbamoyl]furan-2-carboxamide
@<TRIPOS>ATOM
      1 C1          6.5758   -9.9131   -1.3864 C.ar      1 <0>        -0.1042
      2 C2          6.3002  -10.8796   -0.4405 C.ar      1 <0>        -0.0841
      3 C3          5.4712  -10.5802    0.6422 C.ar      1 <0>        -0.0117
      4 C4          4.9240   -9.3028    0.7633 C.ar      1 <0>        -0.1010
      5 C5          5.2069   -8.3393   -0.1920 C.ar      1 <0>         0.1234
      6 C6          6.0293   -8.6490   -1.2692 C.ar      1 <0>        -0.0634
      7 N1          4.6603   -7.0569   -0.0753 N.pl3     1 <0>        -0.6188
      8 C7          5.4178   -5.9746   -0.3421 C.2       1 <0>         0.5095
      9 S1          7.0848   -6.1601   -0.6854 S.2       1 <0>        -0.4703
     10 N2          4.8631   -4.7463   -0.3387 N.am      1 <0>        -0.6372
     11 C8          5.6207   -3.6640   -0.6055 C.2       1 <0>         0.5850
     12 O1          6.8057   -3.7958   -0.8495 O.2       1 <0>        -0.3788
     13 C9          5.0182   -2.3300   -0.6017 C.2       1 <0>        -0.0822
     14 C10         5.6744   -1.1446   -0.8563 C.2       1 <0>        -0.0938
     15 C11         4.7234   -0.1256   -0.7472 C.2       1 <0>        -0.1885
     16 C12         3.5336   -0.7184   -0.4333 C.2       1 <0>         0.0655
     17 O2          3.7242   -2.0452   -0.3431 O.3       1 <0>        -0.1601
     18 C13         2.2516   -0.0166   -0.2219 C.ar      1 <0>        -0.0105
     19 C14         2.1858    1.3738   -0.3387 C.ar      1 <0>        -0.0742
     20 C15         0.9861    2.0239   -0.1398 C.ar      1 <0>        -0.0919
     21 C16        -0.1527    1.3015    0.1753 C.ar      1 <0>        -0.0221
     22 C17        -0.0946   -0.0782    0.2927 C.ar      1 <0>        -0.0299
     23 C18         1.1005   -0.7402    0.0959 C.ar      1 <0>        -0.0794
     24 Cl1        -1.5274   -0.9753    0.6875 Cl        1 <0>        -0.0365
     25 Cl2        -1.6607    2.1270    0.4170 Cl        1 <0>        -0.0359
     26 C19         5.1747  -11.6131    1.6570 C.2       1 <0>         0.0377
     27 C20         5.6419  -12.8898    1.6559 C.2       1 <0>        -0.1898
     28 C21         5.1110  -13.5173    2.8007 C.2       1 <0>        -0.1791
     29 C22         4.3540  -12.6022    3.4370 C.2       1 <0>        -0.0164
     30 O3          4.3995  -11.4513    2.7464 O.3       1 <0>        -0.1656
     31 C23         3.5883  -12.8305    4.7148 C.3       1 <0>         0.1575
     32 O4          4.4199  -12.5107    5.8320 O.3       1 <0>        -0.5663
     33 H1          7.2173  -10.1466   -2.2233 H         1 <0>         0.1392
     34 H2          6.7261  -11.8673   -0.5376 H         1 <0>         0.1340
     35 H3          4.2817   -9.0654    1.5985 H         1 <0>         0.1311
     36 H4          6.2450   -7.8982   -2.0149 H         1 <0>         0.1444
     37 H5          3.7360   -6.9466    0.1975 H         1 <0>         0.4097
     38 H6          3.9186   -4.6412   -0.1442 H         1 <0>         0.4155
     39 H7          6.7211   -1.0259   -1.0942 H         1 <0>         0.1726
     40 H8          4.8969    0.9314   -0.8851 H         1 <0>         0.1674
     41 H9          3.0730    1.9386   -0.5840 H         1 <0>         0.1497
     42 H10         0.9344    3.0989   -0.2302 H         1 <0>         0.1542
     43 H11         1.1451   -1.8154    0.1873 H         1 <0>         0.1483
     44 H12         6.2944  -13.3366    0.9203 H         1 <0>         0.1555
     45 H13         5.2794  -14.5384    3.1096 H         1 <0>         0.1540
     46 H14         2.7033  -12.1943    4.7266 H         1 <0>         0.0651
     47 H15         3.2852  -13.8758    4.7749 H         1 <0>         0.0833
     48 H16         3.9909  -12.6345    6.6898 H         1 <0>         0.3890
@<TRIPOS>BOND
     1    1    6 ar
     2    1    2 ar
     3    1   33 1
     4    2    3 ar
     5    2   34 1
     6    3    4 ar
     7    3   26 1
     8    4    5 ar
     9    4   35 1
    10    5    6 ar
    11    5    7 1
    12    6   36 1
    13    7    8 1
    14    7   37 1
    15    8    9 2
    16    8   10 1
    17   10   11 am
    18   10   38 1
    19   11   12 2
    20   11   13 1
    21   13   17 1
    22   13   14 2
    23   14   15 1
    24   14   39 1
    25   15   16 2
    26   15   40 1
    27   16   17 1
    28   16   18 1
    29   18   23 ar
    30   18   19 ar
    31   19   20 ar
    32   19   41 1
    33   20   21 ar
    34   20   42 1
    35   21   22 ar
    36   21   25 1
    37   22   23 ar
    38   22   24 1
    39   23   43 1
    40   26   30 1
    41   26   27 2
    42   27   28 1
    43   27   44 1
    44   28   29 2
    45   28   45 1
    46   29   30 1
    47   29   31 1
    48   31   32 1
    49   31   46 1
    50   31   47 1
    51   32   48 1
@<TRIPOS>MOLECULE
ZINC09505478
   53    56     0     0     0
SMALL
USER_CHARGES
(2R)-2-[(2-chloro-6-fluoro-phenyl)methylsulfanylmethyl]-N-[(4-chlorophenyl)methyl]-3-oxo-2,4-dihydro-1H-quinoxaline-6-carboxamide
@<TRIPOS>ATOM
      1 C1         -2.0125    2.4640    3.5251 C.ar      1 <0>        -0.0697
      2 C2         -2.3680    1.2544    2.9583 C.ar      1 <0>        -0.1494
      3 C3         -1.7211    0.8070    1.8190 C.ar      1 <0>         0.1314
      4 C4         -0.7181    1.5718    1.2479 C.ar      1 <0>        -0.1056
      5 C5         -0.3600    2.7792    1.8192 C.ar      1 <0>         0.0054
      6 C6         -1.0113    3.2274    2.9551 C.ar      1 <0>        -0.1202
      7 Cl1         0.9023    3.7356    1.1081 Cl        1 <0>        -0.0424
      8 C7         -0.0127    1.0858    0.0080 C.3       1 <0>        -0.0547
      9 S1         -0.8901    1.6867   -1.4616 S.3       1 <0>        -0.2058
     10 C8          0.0725    1.0239   -2.8490 C.3       1 <0>        -0.1113
     11 C9         -0.5668    1.4614   -4.1683 C.3       1 <0>         0.1658
     12 H1         -0.5832    2.5500   -4.2222 H         1 <0>         0.1336
     13 C10         0.2321    0.9113   -5.3228 C.2       1 <0>         0.5175
     14 O1          1.1333    1.5698   -5.7975 O.2       1 <0>        -0.5112
     15 N1         -0.0449   -0.3035   -5.8310 N.am      1 <0>        -0.6506
     16 C11        -1.1651   -1.0230   -5.3973 C.ar      1 <0>         0.0857
     17 C12        -1.3326   -2.3449   -5.7611 C.ar      1 <0>        -0.0541
     18 C13        -2.4525   -3.0518   -5.3129 C.ar      1 <0>        -0.1501
     19 C14        -3.3980   -2.4216   -4.4989 C.ar      1 <0>        -0.0629
     20 C15        -3.2291   -1.1016   -4.1405 C.ar      1 <0>        -0.1472
     21 C16        -2.1199   -0.3985   -4.5884 C.ar      1 <0>         0.1998
     22 N2         -1.9398    0.9428   -4.2452 N.pl3     1 <0>        -0.7338
     23 C17        -2.6360   -4.4638   -5.6988 C.2       1 <0>         0.5648
     24 O2         -1.8137   -5.0124   -6.4069 O.2       1 <0>        -0.5366
     25 N3         -3.7151   -5.1458   -5.2665 N.am      1 <0>        -0.7243
     26 C18        -3.8974   -6.5480   -5.6498 C.3       1 <0>         0.1616
     27 C19        -5.1715   -7.0738   -5.0404 C.ar      1 <0>        -0.1079
     28 C20        -5.1472   -7.6647   -3.7909 C.ar      1 <0>        -0.0867
     29 C21        -6.3163   -8.1420   -3.2290 C.ar      1 <0>        -0.1118
     30 C22        -7.5092   -8.0385   -3.9223 C.ar      1 <0>        -0.0267
     31 C23        -7.5319   -7.4521   -5.1752 C.ar      1 <0>        -0.1117
     32 C24        -6.3630   -6.9701   -5.7335 C.ar      1 <0>        -0.0867
     33 Cl2        -8.9769   -8.6437   -3.2200 Cl        1 <0>        -0.0649
     34 F1         -2.0680   -0.3753    1.2650 F         1 <0>        -0.1241
     35 H2         -2.5171    2.8125    4.4140 H         1 <0>         0.1469
     36 H3         -3.1507    0.6585    3.4041 H         1 <0>         0.1462
     37 H4         -0.7342    4.1723    3.3987 H         1 <0>         0.1448
     38 H5          0.0021   -0.0041    0.0020 H         1 <0>         0.0982
     39 H6          1.0099    1.4631    0.0003 H         1 <0>         0.1028
     40 H7          1.0933    1.4025   -2.7967 H         1 <0>         0.1006
     41 H8          0.0855   -0.0647   -2.7949 H         1 <0>         0.0890
     42 H9          0.5380   -0.6850   -6.5060 H         1 <0>         0.4161
     43 H10        -0.6012   -2.8308   -6.3899 H         1 <0>         0.1435
     44 H11        -4.2614   -2.9692   -4.1510 H         1 <0>         0.1301
     45 H12        -3.9594   -0.6149   -3.5111 H         1 <0>         0.1396
     46 H13        -2.7002    1.5168   -4.0628 H         1 <0>         0.4180
     47 H14        -4.3711   -4.7082   -4.7017 H         1 <0>         0.4018
     48 H15        -3.9559   -6.6232   -6.7356 H         1 <0>         0.0816
     49 H16        -3.0529   -7.1357   -5.2898 H         1 <0>         0.0814
     50 H17        -4.2152   -7.7494   -3.2517 H         1 <0>         0.1353
     51 H18        -6.2980   -8.5997   -2.2510 H         1 <0>         0.1367
     52 H19        -8.4628   -7.3707   -5.7166 H         1 <0>         0.1368
     53 H20        -6.3807   -6.5120   -6.7114 H         1 <0>         0.1355
@<TRIPOS>BOND
     1    1    6 ar
     2    1    2 ar
     3    1   35 1
     4    2    3 ar
     5    2   36 1
     6    3    4 ar
     7    3   34 1
     8    4    5 ar
     9    4    8 1
    10    5    6 ar
    11    5    7 1
    12    6   37 1
    13    8    9 1
    14    8   38 1
    15    8   39 1
    16    9   10 1
    17   10   11 1
    18   10   40 1
    19   10   41 1
    20   11   12 1
    21   11   22 1
    22   11   13 1
    23   13   14 2
    24   13   15 am
    25   15   16 1
    26   15   42 1
    27   16   21 ar
    28   16   17 ar
    29   17   18 ar
    30   17   43 1
    31   18   19 ar
    32   18   23 1
    33   19   20 ar
    34   19   44 1
    35   20   21 ar
    36   20   45 1
    37   21   22 1
    38   22   46 1
    39   23   24 2
    40   23   25 am
    41   25   26 1
    42   25   47 1
    43   26   27 1
    44   26   48 1
    45   26   49 1
    46   27   32 ar
    47   27   28 ar
    48   28   29 ar
    49   28   50 1
    50   29   30 ar
    51   29   51 1
    52   30   31 ar
    53   30   33 1
    54   31   32 ar
    55   31   52 1
    56   32   53 1
@<TRIPOS>MOLECULE
ZINC30825807
   61    64     0     0     0
SMALL
USER_CHARGES
N-[[4-hydroxy-3-(5-isopropyl-1,3-benzoxazol-2-yl)-5-methyl-phenyl]carbamothioyl]-3,5-dimethyl-benzamide
@<TRIPOS>ATOM
      1 C1         -2.7181    5.2168   -0.1922 C.3       1 <0>        -0.1197
      2 C2         -1.6317    5.6301    0.7669 C.ar      1 <0>        -0.0847
      3 C3         -1.8470    6.6789    1.6434 C.ar      1 <0>        -0.0922
      4 C4         -0.8548    7.0649    2.5273 C.ar      1 <0>        -0.0822
      5 C5          0.3567    6.4053    2.5400 C.ar      1 <0>        -0.0619
      6 C6          0.5807    5.3465    1.6580 C.ar      1 <0>        -0.1251
      7 C7         -0.4224    4.9663    0.7645 C.ar      1 <0>        -0.0984
      8 C8          1.8760    4.6353    1.6660 C.2       1 <0>         0.5368
      9 O1          2.7491    4.9717    2.4414 O.2       1 <0>        -0.4023
     10 N1          2.0871    3.6100    0.8171 N.am      1 <0>        -0.6523
     11 C9          3.2665    2.9578    0.8282 C.2       1 <0>         0.5158
     12 S1          4.4965    3.4317    1.9206 S.2       1 <0>        -0.4898
     13 N2          3.4776    1.9325   -0.0208 N.pl3     1 <0>        -0.6293
     14 C10         4.7403    1.3298   -0.0909 C.ar      1 <0>         0.0814
     15 C11         4.8447   -0.0539   -0.1806 C.ar      1 <0>        -0.0521
     16 C12         6.0854   -0.6559   -0.2506 C.ar      1 <0>        -0.1268
     17 C13         7.2361    0.1164   -0.2319 C.ar      1 <0>         0.2102
     18 C14         7.1390    1.5106   -0.1418 C.ar      1 <0>        -0.1202
     19 C15         5.8818    2.1136   -0.0767 C.ar      1 <0>         0.0169
     20 C16         8.3608    2.3393   -0.1215 C.2       1 <0>         0.3054
     21 N3          8.3804    3.6465   -0.0452 N.2       1 <0>        -0.4552
     22 C17         9.6724    4.0645   -0.0483 C.ar      1 <0>         0.0368
     23 C18        10.2795    5.3212    0.0143 C.ar      1 <0>        -0.0595
     24 C19        11.6526    5.4184   -0.0160 C.ar      1 <0>        -0.0725
     25 C20        12.4356    4.2771   -0.1081 C.ar      1 <0>        -0.0866
     26 C21        11.8500    3.0294   -0.1706 C.ar      1 <0>        -0.0879
     27 C22        10.4692    2.9119   -0.1415 C.ar      1 <0>         0.0073
     28 O2          9.6185    1.8622   -0.1846 O.3       1 <0>        -0.2346
     29 C23        12.3090    6.7732    0.0519 C.3       1 <0>        -0.0556
     30 C24        13.2131    6.8407    1.2843 C.3       1 <0>        -0.1476
     31 C25        13.1470    6.9976   -1.2083 C.3       1 <0>        -0.1471
     32 O3          8.4556   -0.4778   -0.3014 O.3       1 <0>        -0.4967
     33 C26         6.1884   -2.1562   -0.3480 C.3       1 <0>        -0.1065
     34 C27        -1.0985    8.2080    3.4786 C.3       1 <0>        -0.1211
     35 H1         -3.6010    5.8558   -0.0435 H         1 <0>         0.0700
     36 H2         -2.9900    4.1670   -0.0079 H         1 <0>         0.0730
     37 H3         -2.3562    5.3260   -1.2252 H         1 <0>         0.0731
     38 H4         -2.7938    7.1984    1.6378 H         1 <0>         0.1297
     39 H5          1.1300    6.7071    3.2309 H         1 <0>         0.1395
     40 H6         -0.2539    4.1510    0.0765 H         1 <0>         0.1212
     41 H7          1.2968    3.3055    0.1152 H         1 <0>         0.4309
     42 H8          2.6584    1.5690   -0.6586 H         1 <0>         0.4309
     43 H9          3.9512   -0.6605   -0.1958 H         1 <0>         0.1394
     44 H10         5.7997    3.1884   -0.0112 H         1 <0>         0.1599
     45 H11         9.6743    6.2128    0.0864 H         1 <0>         0.1373
     46 H12        13.5117    4.3658   -0.1310 H         1 <0>         0.1417
     47 H13        12.4665    2.1456   -0.2419 H         1 <0>         0.1384
     48 H14        11.5245    7.5412    0.1210 H         1 <0>         0.0827
     49 H15        13.6922    7.8296    1.3338 H         1 <0>         0.0623
     50 H16        13.9865    6.0616    1.2147 H         1 <0>         0.0588
     51 H17        12.6106    6.6794    2.1903 H         1 <0>         0.0583
     52 H18        13.6261    7.9865   -1.1587 H         1 <0>         0.0622
     53 H19        12.4969    6.9491   -2.0943 H         1 <0>         0.0575
     54 H20        13.9204    6.2185   -1.2779 H         1 <0>         0.0588
     55 H21         9.3682    0.1361   -0.2865 H         1 <0>         0.4341
     56 H22         7.2478   -2.4488   -0.3938 H         1 <0>         0.0770
     57 H23         5.6732   -2.5009   -1.2567 H         1 <0>         0.0698
     58 H24         5.7194   -2.6140    0.5354 H         1 <0>         0.0702
     59 H25        -0.2032    8.3671    4.0976 H         1 <0>         0.0713
     60 H26        -1.9547    7.9695    4.1267 H         1 <0>         0.0746
     61 H27        -1.3154    9.1217    2.9059 H         1 <0>         0.0747
@<TRIPOS>BOND
     1    1    2 1
     2    1   35 1
     3    1   36 1
     4    1   37 1
     5    2    7 ar
     6    2    3 ar
     7    3    4 ar
     8    3   38 1
     9    4    5 ar
    10    4   34 1
    11    5    6 ar
    12    5   39 1
    13    6    7 ar
    14    6    8 1
    15    7   40 1
    16    8    9 2
    17    8   10 am
    18   10   11 1
    19   10   41 1
    20   11   12 2
    21   11   13 1
    22   13   14 1
    23   13   42 1
    24   14   19 ar
    25   14   15 ar
    26   15   16 ar
    27   15   43 1
    28   16   17 ar
    29   16   33 1
    30   17   18 ar
    31   17   32 1
    32   18   19 ar
    33   18   20 1
    34   19   44 1
    35   20   28 1
    36   20   21 2
    37   21   22 1
    38   22   27 ar
    39   22   23 ar
    40   23   24 ar
    41   23   45 1
    42   24   25 ar
    43   24   29 1
    44   25   26 ar
    45   25   46 1
    46   26   27 ar
    47   26   47 1
    48   27   28 1
    49   29   30 1
    50   29   31 1
    51   29   48 1
    52   30   49 1
    53   30   50 1
    54   30   51 1
    55   31   52 1
    56   31   53 1
    57   31   54 1
    58   32   55 1
    59   33   56 1
    60   33   57 1
    61   33   58 1
    62   34   59 1
    63   34   60 1
    64   34   61 1
@<TRIPOS>MOLECULE
ZINC36586817
   71    72     0     0     0
SMALL
USER_CHARGES

@<TRIPOS>ATOM
      1 C1          0.4680   -0.9051   -5.5778 C.3       1 <0>        -0.1665
      2 C2         -0.0555    0.0467   -4.5004 C.3       1 <0>        -0.0643
      3 C3          0.6525    1.3973   -4.6254 C.3       1 <0>        -0.1649
      4 C4         -1.5622    0.2420   -4.6807 C.3       1 <0>        -0.1419
      5 C5          0.2199   -0.5474   -3.1176 C.3       1 <0>        -0.1154
      6 C6          1.6682   -0.2585   -2.7176 C.3       1 <0>         0.1825
      7 C7          1.8047    1.2138   -2.3246 C.3       1 <0>        -0.2324
      8 C8          2.0549   -1.1415   -1.5295 C.3       1 <0>        -0.1578
      9 N1          2.5538   -0.5462   -3.8485 N.am      1 <0>        -0.7262
     10 C9          3.8279   -0.1068   -3.8356 C.2       1 <0>         0.5027
     11 O1          4.2411    0.5269   -2.8876 O.2       1 <0>        -0.4743
     12 C10         4.7389   -0.4027   -4.9990 C.3       1 <0>         0.1619
     13 H1          4.7816   -1.4796   -5.1622 H         1 <0>         0.1253
     14 C11         4.2079    0.2724   -6.2372 C.ar      1 <0>        -0.0944
     15 C12         4.6098    1.5576   -6.5498 C.ar      1 <0>        -0.0755
     16 C13         4.1231    2.1773   -7.6853 C.ar      1 <0>        -0.1080
     17 C14         3.2335    1.5111   -8.5093 C.ar      1 <0>        -0.0269
     18 C15         2.8316    0.2248   -8.1959 C.ar      1 <0>        -0.1081
     19 C16         3.3233   -0.3959   -7.0631 C.ar      1 <0>        -0.1036
     20 Cl1         2.6213    2.2890   -9.9354 Cl        1 <0>        -0.0681
     21 N2          6.0833    0.1007   -4.7068 N.am      1 <0>        -0.5859
     22 C17         6.2445    1.3435   -4.2110 C.2       1 <0>         0.5825
     23 O2          5.2731    1.9999   -3.8875 O.2       1 <0>        -0.4768
     24 C18         7.5967    1.9066   -4.0610 C.ar      1 <0>        -0.1772
     25 C19         8.2023    2.5838   -5.1295 C.ar      1 <0>         0.1589
     26 C20         9.4748    3.1101   -4.9773 C.ar      1 <0>        -0.1597
     27 C21        10.1473    2.9698   -3.7777 C.ar      1 <0>        -0.0688
     28 C22         9.5600    2.3038   -2.7181 C.ar      1 <0>        -0.1612
     29 C23         8.2860    1.7747   -2.8467 C.ar      1 <0>         0.1666
     30 O3          7.7094    1.1269   -1.8035 O.3       1 <0>        -0.4895
     31 O4          7.5446    2.7225   -6.3079 O.3       1 <0>        -0.4881
     32 C24         7.2525   -0.7469   -4.9535 C.3       1 <0>         0.1708
     33 C25         6.7903   -2.1445   -5.3705 C.3       1 <0>        -0.1614
     34 C26         8.0992   -0.1350   -6.0713 C.3       1 <0>        -0.1756
     35 C27         8.0890   -0.8463   -3.6763 C.3       1 <0>        -0.1970
     36 H2          1.4782   -0.6111   -5.8628 H         1 <0>         0.0680
     37 H3          0.4822   -1.9229   -5.1878 H         1 <0>         0.0578
     38 H4         -0.1835   -0.8596   -6.4505 H         1 <0>         0.0631
     39 H5          0.5889    1.7468   -5.6559 H         1 <0>         0.0455
     40 H6          0.1734    2.1210   -3.9660 H         1 <0>         0.0595
     41 H7          1.6995    1.2862   -4.3433 H         1 <0>         0.0929
     42 H8         -2.0665   -0.7202   -4.5916 H         1 <0>         0.0545
     43 H9         -1.9351    0.9201   -3.9131 H         1 <0>         0.0548
     44 H10        -1.7584    0.6652   -5.6658 H         1 <0>         0.0555
     45 H11        -0.4548   -0.0988   -2.3885 H         1 <0>         0.0789
     46 H12         0.0590   -1.6251   -3.1465 H         1 <0>         0.0675
     47 H13         1.3694    1.3682   -1.3372 H         1 <0>         0.0492
     48 H14         2.8595    1.4879   -2.3035 H         1 <0>         0.1094
     49 H15         1.2825    1.8342   -3.0529 H         1 <0>         0.0962
     50 H16         2.0444   -2.1876   -1.8356 H         1 <0>         0.0519
     51 H17         3.0545   -0.8731   -1.1875 H         1 <0>         0.0654
     52 H18         1.3415   -0.9929   -0.7189 H         1 <0>         0.0624
     53 H19         2.2233   -1.0530   -4.6067 H         1 <0>         0.3982
     54 H20         5.3040    2.0777   -5.9064 H         1 <0>         0.1423
     55 H21         4.4370    3.1815   -7.9292 H         1 <0>         0.1325
     56 H22         2.1369   -0.2956   -8.8385 H         1 <0>         0.1356
     57 H23         3.0133   -1.4017   -6.8209 H         1 <0>         0.1306
     58 H24         9.9431    3.6316   -5.7989 H         1 <0>         0.1397
     59 H25        11.1390    3.3831   -3.6675 H         1 <0>         0.1379
     60 H26        10.0945    2.1992   -1.7855 H         1 <0>         0.1393
     61 H27         7.8905    0.1773   -1.7815 H         1 <0>         0.3893
     62 H28         7.0052    3.5230   -6.3654 H         1 <0>         0.3942
     63 H29         6.1246   -2.0657   -6.2301 H         1 <0>         0.0682
     64 H30         7.6571   -2.7495   -5.6366 H         1 <0>         0.0786
     65 H31         6.2599   -2.6141   -4.5421 H         1 <0>         0.0645
     66 H32         8.4085    0.8699   -5.7843 H         1 <0>         0.0846
     67 H33         8.9815   -0.7529   -6.2385 H         1 <0>         0.0643
     68 H34         7.5108   -0.0863   -6.9876 H         1 <0>         0.0643
     69 H35         7.4398   -1.0876   -2.8346 H         1 <0>         0.0680
     70 H36         8.8386   -1.6290   -3.7929 H         1 <0>         0.0782
     71 H37         8.5845    0.1068   -3.4914 H         1 <0>         0.0755
@<TRIPOS>BOND
     1    1    2 1
     2    1   36 1
     3    1   37 1
     4    1   38 1
     5    2    3 1
     6    2    4 1
     7    2    5 1
     8    3   39 1
     9    3   40 1
    10    3   41 1
    11    4   42 1
    12    4   43 1
    13    4   44 1
    14    5    6 1
    15    5   45 1
    16    5   46 1
    17    6    7 1
    18    6    8 1
    19    6    9 1
    20    7   47 1
    21    7   48 1
    22    7   49 1
    23    8   50 1
    24    8   51 1
    25    8   52 1
    26    9   10 am
    27    9   53 1
    28   10   11 2
    29   10   12 1
    30   12   13 1
    31   12   14 1
    32   12   21 1
    33   14   19 ar
    34   14   15 ar
    35   15   16 ar
    36   15   54 1
    37   16   17 ar
    38   16   55 1
    39   17   18 ar
    40   17   20 1
    41   18   19 ar
    42   18   56 1
    43   19   57 1
    44   21   22 am
    45   21   32 1
    46   22   23 2
    47   22   24 1
    48   24   29 ar
    49   24   25 ar
    50   25   26 ar
    51   25   31 1
    52   26   27 ar
    53   26   58 1
    54   27   28 ar
    55   27   59 1
    56   28   29 ar
    57   28   60 1
    58   29   30 1
    59   30   61 1
    60   31   62 1
    61   32   33 1
    62   32   34 1
    63   32   35 1
    64   33   63 1
    65   33   64 1
    66   33   65 1
    67   34   66 1
    68   34   67 1
    69   34   68 1
    70   35   69 1
    71   35   70 1
    72   35   71 1
@<TRIPOS>MOLECULE
ZINC36610090
   67    70     0     0     0
SMALL
USER_CHARGES

@<TRIPOS>ATOM
      1 C1          0.1648    1.0402    0.1537 C.3       1 <0>        -0.1450
      2 C2         -0.0958   -0.4566   -0.0272 C.3       1 <0>        -0.0618
      3 H1          0.3535   -0.7932   -0.9616 H         1 <0>         0.0937
      4 C3          0.5121   -1.2151    1.1244 C.ar      1 <0>        -0.0885
      5 C4          0.0928   -0.9618    2.4170 C.ar      1 <0>        -0.1203
      6 C5          0.6503   -1.6576    3.4734 C.ar      1 <0>        -0.1146
      7 C6          1.6269   -2.6070    3.2370 C.ar      1 <0>        -0.1163
      8 C7          2.0455   -2.8610    1.9443 C.ar      1 <0>        -0.1147
      9 C8          1.4849   -2.1682    0.8876 C.ar      1 <0>        -0.1054
     10 C9         -1.6040   -0.7107   -0.0659 C.3       1 <0>         0.1305
     11 H2         -2.0430   -0.4389    0.8941 H         1 <0>         0.1286
     12 C10        -1.8607   -2.1700   -0.3405 C.2       1 <0>         0.5062
     13 O1         -2.4871   -2.5008   -1.3250 O.2       1 <0>        -0.5163
     14 N1         -1.3942   -3.1076    0.5079 N.am      1 <0>        -0.7218
     15 C11        -1.6437   -4.5263    0.2410 C.3       1 <0>         0.1472
     16 C12        -3.0151   -4.9162    0.7962 C.3       1 <0>        -0.1288
     17 C13        -3.2757   -6.3979    0.5174 C.3       1 <0>        -0.1165
     18 C14        -2.1931   -7.2420    1.1929 C.3       1 <0>        -0.1221
     19 C15        -0.8218   -6.8521    0.6377 C.3       1 <0>        -0.1152
     20 C16        -0.5612   -5.3705    0.9165 C.3       1 <0>        -0.1236
     21 N2         -2.2087    0.0995   -1.1262 N.am      1 <0>        -0.5379
     22 C17        -1.8796   -0.1412   -2.4640 C.ar      1 <0>         0.1388
     23 C18        -2.8392   -0.6337   -3.3390 C.ar      1 <0>        -0.0736
     24 C19        -2.5109   -0.8703   -4.6595 C.ar      1 <0>        -0.1111
     25 C20        -1.2284   -0.6176   -5.1107 C.ar      1 <0>        -0.1154
     26 C21        -0.2705   -0.1277   -4.2420 C.ar      1 <0>        -0.1150
     27 C22        -0.5940    0.1170   -2.9217 C.ar      1 <0>        -0.1429
     28 C23        -3.0822    1.0768   -0.8125 C.2       1 <0>         0.5935
     29 O2         -3.4388    1.2265    0.3407 O.2       1 <0>        -0.5189
     30 C24        -3.6046    1.9630   -1.8655 C.ar      1 <0>        -0.1775
     31 C25        -4.8426    1.6923   -2.4666 C.ar      1 <0>         0.1624
     32 C26        -5.3250    2.5332   -3.4563 C.ar      1 <0>        -0.1532
     33 C27        -4.5908    3.6358   -3.8518 C.ar      1 <0>        -0.0681
     34 C28        -3.3692    3.9118   -3.2663 C.ar      1 <0>        -0.1531
     35 C29        -2.8705    3.0874   -2.2707 C.ar      1 <0>         0.1593
     36 O3         -1.6742    3.3636   -1.6938 O.3       1 <0>        -0.4863
     37 O4         -5.5648    0.6107   -2.0806 O.3       1 <0>        -0.4908
     38 H3          1.2393    1.2212    0.1813 H         1 <0>         0.0670
     39 H4         -0.2749    1.5888   -0.6792 H         1 <0>         0.0629
     40 H5         -0.2845    1.3768    1.0880 H         1 <0>         0.0658
     41 H6         -0.6702   -0.2200    2.6016 H         1 <0>         0.1258
     42 H7          0.3232   -1.4592    4.4833 H         1 <0>         0.1260
     43 H8          2.0630   -3.1501    4.0624 H         1 <0>         0.1243
     44 H9          2.8087   -3.6025    1.7597 H         1 <0>         0.1246
     45 H10         1.8093   -2.3693   -0.1227 H         1 <0>         0.1221
     46 H11        -0.8933   -2.8431    1.2953 H         1 <0>         0.4011
     47 H12        -1.6237   -4.7027   -0.8345 H         1 <0>         0.0870
     48 H13        -3.0352   -4.7399    1.8716 H         1 <0>         0.0619
     49 H14        -3.7863   -4.3148    0.3149 H         1 <0>         0.0663
     50 H15        -4.2527   -6.6757    0.9129 H         1 <0>         0.0646
     51 H16        -3.2556   -6.5742   -0.5581 H         1 <0>         0.0639
     52 H17        -2.2132   -7.0657    2.2684 H         1 <0>         0.0623
     53 H18        -2.3788   -8.2976    0.9943 H         1 <0>         0.0640
     54 H19        -0.0506   -7.4535    1.1190 H         1 <0>         0.0671
     55 H20        -0.8017   -7.0285   -0.4378 H         1 <0>         0.0646
     56 H21         0.4158   -5.0927    0.5209 H         1 <0>         0.0681
     57 H22        -0.5813   -5.1941    1.9919 H         1 <0>         0.0661
     58 H23        -3.8409   -0.8316   -2.9872 H         1 <0>         0.1313
     59 H24        -3.2565   -1.2536   -5.3404 H         1 <0>         0.1240
     60 H25        -0.9742   -0.8035   -6.1438 H         1 <0>         0.1229
     61 H26         0.7303    0.0684   -4.5974 H         1 <0>         0.1252
     62 H27         0.1533    0.5041   -2.2449 H         1 <0>         0.1288
     63 H28        -6.2778    2.3265   -3.9207 H         1 <0>         0.1395
     64 H29        -4.9742    4.2862   -4.6240 H         1 <0>         0.1381
     65 H30        -2.8034    4.7754   -3.5833 H         1 <0>         0.1392
     66 H31        -0.9191    2.9561   -2.1398 H         1 <0>         0.3904
     67 H32        -6.1793    0.7866   -1.3549 H         1 <0>         0.3995
@<TRIPOS>BOND
     1    1    2 1
     2    1   38 1
     3    1   39 1
     4    1   40 1
     5    2    3 1
     6    2    4 1
     7    2   10 1
     8    4    9 ar
     9    4    5 ar
    10    5    6 ar
    11    5   41 1
    12    6    7 ar
    13    6   42 1
    14    7    8 ar
    15    7   43 1
    16    8    9 ar
    17    8   44 1
    18    9   45 1
    19   10   11 1
    20   10   12 1
    21   10   21 1
    22   12   13 2
    23   12   14 am
    24   14   15 1
    25   14   46 1
    26   15   20 1
    27   15   16 1
    28   15   47 1
    29   16   17 1
    30   16   48 1
    31   16   49 1
    32   17   18 1
    33   17   50 1
    34   17   51 1
    35   18   19 1
    36   18   52 1
    37   18   53 1
    38   19   20 1
    39   19   54 1
    40   19   55 1
    41   20   56 1
    42   20   57 1
    43   21   22 1
    44   21   28 am
    45   22   27 ar
    46   22   23 ar
    47   23   24 ar
    48   23   58 1
    49   24   25 ar
    50   24   59 1
    51   25   26 ar
    52   25   60 1
    53   26   27 ar
    54   26   61 1
    55   27   62 1
    56   28   29 2
    57   28   30 1
    58   30   35 ar
    59   30   31 ar
    60   31   32 ar
    61   31   37 1
    62   32   33 ar
    63   32   63 1
    64   33   34 ar
    65   33   64 1
    66   34   35 ar
    67   34   65 1
    68   35   36 1
    69   36   66 1
    70   37   67 1
@<TRIPOS>MOLECULE
ZINC05047317
   31    33     0     0     0
SMALL
USER_CHARGES
3-[(3-bromophenyl)methylsulfanyl]-5-(2-furyl)-1,2,4-triazol-4-amine
@<TRIPOS>ATOM
      1 C1         -8.8160   -4.1891   -0.6692 C.ar      1 <0>        -0.1115
      2 C2         -7.4839   -3.8512   -0.8199 C.ar      1 <0>        -0.0821
      3 C3         -6.6223   -3.9377    0.2574 C.ar      1 <0>        -0.0817
      4 C4         -7.0912   -4.3669    1.4850 C.ar      1 <0>        -0.0690
      5 C5         -8.4249   -4.7000    1.6376 C.ar      1 <0>        -0.0913
      6 C6         -9.2867   -4.6137    0.5588 C.ar      1 <0>        -0.0792
      7 Br1        -9.0683   -5.2809    3.3182 Br        1 <0>        -0.0417
      8 C7         -5.1702   -3.5702    0.0922 C.3       1 <0>        -0.0559
      9 S1         -4.9499   -1.8085    0.4446 S.3       1 <0>         0.0084
     10 C8         -3.2138   -1.6589    0.1830 C.2       1 <0>         0.1248
     11 N1         -2.3933   -2.6226   -0.1700 N.2       1 <0>        -0.2684
     12 N2         -1.1964   -2.1675   -0.2783 N.2       1 <0>        -0.2460
     13 C9         -1.1768   -0.8841    0.0081 C.2       1 <0>         0.2944
     14 N3         -2.4706   -0.5187    0.3091 N.pl3     1 <0>        -0.3013
     15 N4         -2.9173    0.7234    0.6605 N.3       1 <0>        -0.5762
     16 C10         0.0021   -0.0041    0.0020 C.2       1 <0>         0.0392
     17 C11         1.3031   -0.4092   -0.0126 C.2       1 <0>        -0.1343
     18 C12         2.0910    0.7580   -0.0138 C.2       1 <0>        -0.2153
     19 C13         1.2446    1.8069   -0.0001 C.2       1 <0>        -0.0121
     20 O1         -0.0162    1.3435    0.0094 O.3       1 <0>        -0.1590
     21 H1         -9.4888   -4.1217   -1.5114 H         1 <0>         0.1382
     22 H2         -7.1163   -3.5198   -1.7798 H         1 <0>         0.1349
     23 H3         -6.4171   -4.4384    2.3257 H         1 <0>         0.1379
     24 H4        -10.3272   -4.8783    0.6763 H         1 <0>         0.1371
     25 H5         -4.8569   -3.7780   -0.9309 H         1 <0>         0.1143
     26 H6         -4.5658   -4.1573    0.7837 H         1 <0>         0.1135
     27 H7         -3.1897    1.2534   -0.1537 H         1 <0>         0.3706
     28 H8         -3.6766    0.6608    1.3220 H         1 <0>         0.3786
     29 H9          1.6607   -1.4283   -0.0218 H         1 <0>         0.1620
     30 H10         3.1700    0.8039   -0.0242 H         1 <0>         0.1590
     31 H11         1.5325    2.8478    0.0027 H         1 <0>         0.2120
@<TRIPOS>BOND
     1    1    6 ar
     2    1    2 ar
     3    1   21 1
     4    2    3 ar
     5    2   22 1
     6    3    4 ar
     7    3    8 1
     8    4    5 ar
     9    4   23 1
    10    5    6 ar
    11    5    7 1
    12    6   24 1
    13    8    9 1
    14    8   25 1
    15    8   26 1
    16    9   10 1
    17   10   14 1
    18   10   11 2
    19   11   12 1
    20   12   13 2
    21   13   14 1
    22   13   16 1
    23   14   15 1
    24   15   27 1
    25   15   28 1
    26   16   20 1
    27   16   17 2
    28   17   18 1
    29   17   29 1
    30   18   19 2
    31   18   30 1
    32   19   20 1
    33   19   31 1
@<TRIPOS>MOLECULE
ZINC14137904
   48    51     0     0     0
SMALL
USER_CHARGES
[4-[2-(cyclohexylamino)thiazol-4-yl]-1H-pyrrol-2-yl]-pyrrolidin-1-yl-methanone
@<TRIPOS>ATOM
      1 C1         -6.3929    1.6913   -6.3851 C.2       1 <0>        -0.0619
      2 C2         -6.5891    0.6359   -5.4746 C.2       1 <0>        -0.1163
      3 C3         -7.7053   -0.0445   -5.8693 C.2       1 <0>         0.0507
      4 N1         -8.1973    0.5468   -6.9855 N.pl3     1 <0>        -0.5434
      5 H1         -8.9864    0.2635   -7.4732 H         1 <0>         0.4190
      6 C4         -7.3938    1.6153   -7.3132 C.2       1 <0>        -0.0570
      7 C5         -7.5817    2.5176   -8.4546 C.2       1 <0>         0.6055
      8 O1         -6.8014    3.4324   -8.6421 O.2       1 <0>        -0.5228
      9 N2         -8.6186    2.3333   -9.2957 N.am      1 <0>        -0.6238
     10 C6         -9.6281    1.2696   -9.1911 C.3       1 <0>         0.0860
     11 C7        -10.5980    1.4398  -10.3792 C.3       1 <0>        -0.1301
     12 C8         -9.7501    2.2365  -11.4058 C.3       1 <0>        -0.1347
     13 C9         -8.9247    3.1611  -10.4765 C.3       1 <0>         0.1054
     14 C10        -5.7407    0.3234   -4.2961 C.2       1 <0>         0.1910
     15 C11        -5.9749   -0.7861   -3.5364 C.2       1 <0>        -0.2702
     16 S1         -4.6821   -0.6314   -2.3130 S.3       1 <0>         0.0206
     17 C12        -3.9784    0.8406   -2.9063 C.2       1 <0>         0.3633
     18 N3         -4.7369    1.1174   -3.9477 N.2       1 <0>        -0.5788
     19 N4         -2.8966    1.5484   -2.4075 N.pl3     1 <0>        -0.6754
     20 C13        -2.1881    1.0631   -1.2207 C.3       1 <0>         0.1541
     21 C14        -0.7527    1.5927   -1.2315 C.3       1 <0>        -0.1259
     22 C15        -0.0127    1.0858    0.0080 C.3       1 <0>        -0.1159
     23 C16        -0.7288    1.5792    1.2668 C.3       1 <0>        -0.1242
     24 C17        -2.1642    1.0497    1.2777 C.3       1 <0>        -0.1173
     25 C18        -2.9042    1.5565    0.0381 C.3       1 <0>        -0.1372
     26 H2         -5.5988    2.4227   -6.3572 H         1 <0>         0.1532
     27 H3         -8.1250   -0.9085   -5.3757 H         1 <0>         0.1781
     28 H4         -9.1450    0.2938   -9.2414 H         1 <0>         0.0696
     29 H5        -10.1739    1.3674   -8.2527 H         1 <0>         0.0698
     30 H6        -11.4798    2.0082  -10.0836 H         1 <0>         0.0824
     31 H7        -10.8818    0.4686  -10.7846 H         1 <0>         0.0871
     32 H8        -10.3877    2.8193  -12.0706 H         1 <0>         0.0894
     33 H9         -9.0993    1.5723  -11.9743 H         1 <0>         0.0785
     34 H10        -9.5135    4.0316  -10.1873 H         1 <0>         0.0719
     35 H11        -8.0043    3.4718  -10.9709 H         1 <0>         0.0831
     36 H12        -6.7331   -1.5475   -3.6447 H         1 <0>         0.1905
     37 H13        -2.6085    2.3652   -2.8442 H         1 <0>         0.4147
     38 H14        -2.1733   -0.0268   -1.2266 H         1 <0>         0.0839
     39 H15        -0.7675    2.6825   -1.2255 H         1 <0>         0.0731
     40 H16        -0.2425    1.2411   -2.1283 H         1 <0>         0.0733
     41 H17         0.0021   -0.0041    0.0020 H         1 <0>         0.0667
     42 H18         1.0099    1.4631    0.0003 H         1 <0>         0.0709
     43 H19        -0.2017    1.2182    2.1499 H         1 <0>         0.0665
     44 H20        -0.7436    2.6691    1.2728 H         1 <0>         0.0644
     45 H21        -2.6744    1.4012    2.1745 H         1 <0>         0.0685
     46 H22        -2.1494   -0.0402    1.2717 H         1 <0>         0.0657
     47 H23        -2.9190    2.6464    0.0441 H         1 <0>         0.0706
     48 H24        -3.9268    1.1792    0.0459 H         1 <0>         0.0679
@<TRIPOS>BOND
     1    1    6 2
     2    1    2 1
     3    1   26 1
     4    2    3 2
     5    2   14 1
     6    3    4 1
     7    3   27 1
     8    4    5 1
     9    4    6 1
    10    6    7 1
    11    7    8 2
    12    7    9 am
    13    9   13 1
    14    9   10 1
    15   10   11 1
    16   10   28 1
    17   10   29 1
    18   11   12 1
    19   11   30 1
    20   11   31 1
    21   12   13 1
    22   12   32 1
    23   12   33 1
    24   13   34 1
    25   13   35 1
    26   14   18 1
    27   14   15 2
    28   15   16 1
    29   15   36 1
    30   16   17 1
    31   17   18 2
    32   17   19 1
    33   19   20 1
    34   19   37 1
    35   20   25 1
    36   20   21 1
    37   20   38 1
    38   21   22 1
    39   21   39 1
    40   21   40 1
    41   22   23 1
    42   22   41 1
    43   22   42 1
    44   23   24 1
    45   23   43 1
    46   23   44 1
    47   24   25 1
    48   24   45 1
    49   24   46 1
    50   25   47 1
    51   25   48 1
@<TRIPOS>MOLECULE
ZINC03533179
   38    41     0     0     0
SMALL
USER_CHARGES

@<TRIPOS>ATOM
      1 C1         -0.0168    1.3881    0.0097 C.ar      1 <0>        -0.1674
      2 C2          1.1506    2.0948    0.0023 C.ar      1 <0>        -0.0382
      3 C3          2.3790    1.4207   -0.0135 C.ar      1 <0>        -0.2085
      4 C4          2.4014    0.0141   -0.0213 C.ar      1 <0>         0.1940
      5 C5          1.2092   -0.6886   -0.0132 C.ar      1 <0>        -0.1910
      6 C6          0.0021   -0.0041    0.0020 C.ar      1 <0>         0.1651
      7 O1         -1.1655   -0.6949    0.0099 O.3       1 <0>        -0.4952
      8 O2          3.5840   -0.6493   -0.0371 O.3       1 <0>        -0.4778
      9 C7          3.6337    2.1769   -0.0224 C.2       1 <0>         0.4142
     10 O3          4.6956    1.5901   -0.0361 O.2       1 <0>        -0.4191
     11 C8          3.6053    3.6836   -0.0145 C.3       1 <0>        -0.1755
     12 S1          5.3038    4.3204   -0.0285 S.3       1 <0>         0.0367
     13 C9          5.1029    6.0709   -0.0176 C.ar      1 <0>         0.1982
     14 C10         6.2381    6.9284   -0.0308 C.ar      1 <0>        -0.1568
     15 C11         7.6629    6.5599   -0.0535 C.2       1 <0>        -0.1137
     16 C12         8.5502    7.5677   -0.0614 C.2       1 <0>        -0.1599
     17 S2          7.5676    9.0499   -0.0430 S.3       1 <0>         0.1595
     18 C13         5.9591    8.3066   -0.0213 C.ar      1 <0>         0.1258
     19 N1          4.7194    8.7592   -0.0006 N.ar      1 <0>        -0.4828
     20 C14         3.7048    7.9163    0.0112 C.ar      1 <0>         0.3307
     21 N2          3.8927    6.6089   -0.0027 N.ar      1 <0>        -0.5409
     22 C15         9.9720    7.0734   -0.0792 C.3       1 <0>        -0.0380
     23 C16         9.8734    5.5940    0.3535 C.3       1 <0>        -0.1155
     24 C17         8.4361    5.2381   -0.0745 C.3       1 <0>        -0.0659
     25 H1         -0.9611    1.9120    0.0260 H         1 <0>         0.1411
     26 H2          1.1277    3.1745    0.0084 H         1 <0>         0.1427
     27 H3          1.2182   -1.7685   -0.0195 H         1 <0>         0.1449
     28 H4         -1.5128   -0.8905   -0.8711 H         1 <0>         0.4017
     29 H5          3.9362   -0.8464    0.8417 H         1 <0>         0.4013
     30 H6          3.0758    4.0417   -0.8974 H         1 <0>         0.1297
     31 H7          3.0938    4.0327    0.8825 H         1 <0>         0.1299
     32 H8          2.6970    8.3042    0.0280 H         1 <0>         0.2117
     33 H9         10.3884    7.1489   -1.0837 H         1 <0>         0.0931
     34 H10        10.5796    7.6371    0.6288 H         1 <0>         0.0865
     35 H11        10.6018    4.9823   -0.1787 H         1 <0>         0.0894
     36 H12         9.9955    5.4939    1.4320 H         1 <0>         0.0801
     37 H13         7.9964    4.5329    0.6307 H         1 <0>         0.0823
     38 H14         8.4355    4.8170   -1.0799 H         1 <0>         0.0875
@<TRIPOS>BOND
     1    1    6 ar
     2    1    2 ar
     3    1   25 1
     4    2    3 ar
     5    2   26 1
     6    3    4 ar
     7    3    9 1
     8    4    5 ar
     9    4    8 1
    10    5    6 ar
    11    5   27 1
    12    6    7 1
    13    7   28 1
    14    8   29 1
    15    9   10 2
    16    9   11 1
    17   11   12 1
    18   11   30 1
    19   11   31 1
    20   12   13 1
    21   13   21 ar
    22   13   14 ar
    23   14   18 ar
    24   14   15 1
    25   15   24 1
    26   15   16 2
    27   16   17 1
    28   16   22 1
    29   17   18 1
    30   18   19 ar
    31   19   20 ar
    32   20   21 ar
    33   20   32 1
    34   22   23 1
    35   22   33 1
    36   22   34 1
    37   23   24 1
    38   23   35 1
    39   23   36 1
    40   24   37 1
    41   24   38 1
@<TRIPOS>MOLECULE
ZINC54436183
   33    35     0     0     0
SMALL
USER_CHARGES

@<TRIPOS>ATOM
      1 C1         -0.2040    1.0759   -0.0107 C.ar      1 <0>        -0.1538
      2 C2          0.9368    1.8474   -0.1332 C.ar      1 <0>        -0.0788
      3 C3          2.1801    1.2456   -0.1541 C.ar      1 <0>        -0.1463
      4 C4          2.2834   -0.1341   -0.0514 C.ar      1 <0>         0.1278
      5 C5          1.1373   -0.9059    0.0719 C.ar      1 <0>        -0.2081
      6 C6         -0.1037   -0.2993    0.0917 C.ar      1 <0>        -0.0786
      7 O1          3.5053   -0.7286   -0.0721 O.3       1 <0>        -0.3077
      8 C7          3.5358   -2.1530    0.0380 C.3       1 <0>         0.1489
      9 C8          4.9648   -2.6296   -0.0033 C.2       1 <0>         0.2540
     10 N1          5.6405   -2.9543   -1.1074 N.2       1 <0>        -0.5181
     11 C9          6.8615   -3.3295   -0.7928 C.2       1 <0>         0.3498
     12 O2          6.9889   -3.2493    0.5436 O.3       1 <0>        -0.0950
     13 N2          5.7396   -2.7851    1.0328 N.2       1 <0>        -0.3138
     14 C10         7.9067   -3.7625   -1.7393 C.ar      1 <0>        -0.1228
     15 C11         8.1621   -3.0173   -2.8927 C.ar      1 <0>        -0.0020
     16 C12         9.1397   -3.4266   -3.7733 C.ar      1 <0>        -0.1538
     17 C13         9.8725   -4.5763   -3.5209 C.ar      1 <0>        -0.0097
     18 C14         9.6310   -5.3233   -2.3842 C.ar      1 <0>        -0.1732
     19 C15         8.6541   -4.9221   -1.4831 C.ar      1 <0>         0.2741
     20 N3          8.4130   -5.6694   -0.3349 N.pl3     1 <0>        -0.8576
     21 Br1        11.2099   -5.1252   -4.7399 Br        1 <0>        -0.0324
     22 H1         -1.1748    1.5486    0.0095 H         1 <0>         0.1263
     23 H2          0.8559    2.9214   -0.2131 H         1 <0>         0.1321
     24 H3          3.0709    1.8485   -0.2505 H         1 <0>         0.1319
     25 H4          1.2150   -1.9802    0.1516 H         1 <0>         0.1286
     26 H5         -0.9963   -0.8997    0.1876 H         1 <0>         0.1277
     27 H6          3.0794   -2.4543    0.9809 H         1 <0>         0.0980
     28 H7          2.9817   -2.5934   -0.7909 H         1 <0>         0.1047
     29 H8          7.5936   -2.1215   -3.0943 H         1 <0>         0.1452
     30 H9          9.3358   -2.8493   -4.6647 H         1 <0>         0.1446
     31 H10        10.2058   -6.2177   -2.1941 H         1 <0>         0.1448
     32 H11         7.6682   -5.4429    0.2437 H         1 <0>         0.4030
     33 H12         8.9897   -6.4171   -0.1130 H         1 <0>         0.4101
@<TRIPOS>BOND
     1    1    6 ar
     2    1    2 ar
     3    1   22 1
     4    2    3 ar
     5    2   23 1
     6    3    4 ar
     7    3   24 1
     8    4    5 ar
     9    4    7 1
    10    5    6 ar
    11    5   25 1
    12    6   26 1
    13    7    8 1
    14    8    9 1
    15    8   27 1
    16    8   28 1
    17    9   13 2
    18    9   10 1
    19   10   11 2
    20   11   12 1
    21   11   14 1
    22   12   13 1
    23   14   19 ar
    24   14   15 ar
    25   15   16 ar
    26   15   29 1
    27   16   17 ar
    28   16   30 1
    29   17   18 ar
    30   17   21 1
    31   18   19 ar
    32   18   31 1
    33   19   20 1
    34   20   32 1
    35   20   33 1
@<TRIPOS>MOLECULE
ZINC62636877
   42    44     0     0     0
SMALL
USER_CHARGES

@<TRIPOS>ATOM
      1 C1         -0.0206    1.5468    0.0539 C.3       1 <0>        -0.0633
      2 C2          0.0071    0.0403    0.0289 C.2       1 <0>        -0.1543
      3 C3         -1.0452   -0.8369    0.0187 C.2       1 <0>        -0.0290
      4 N1         -0.7983   -2.1393   -0.0038 N.2       1 <0>        -0.4558
      5 C4          0.4596   -2.5414   -0.0157 C.2       1 <0>         0.1083
      6 S1          1.3386   -0.9889   -0.0012 S.3       1 <0>         0.1710
      7 C5          0.9986   -3.9186   -0.0401 C.ar      1 <0>        -0.0149
      8 C6          2.3776   -4.1312   -0.0432 C.ar      1 <0>        -0.0952
      9 C7          2.8741   -5.4183   -0.0660 C.ar      1 <0>        -0.1156
     10 C8          2.0078   -6.4968   -0.0857 C.ar      1 <0>        -0.1003
     11 C9          0.6395   -6.2927   -0.0832 C.ar      1 <0>        -0.1185
     12 C10         0.1303   -5.0106   -0.0542 C.ar      1 <0>        -0.0731
     13 C11        -2.4317   -0.3399    0.0332 C.2       1 <0>         0.5939
     14 O1         -2.6486    0.8569    0.0543 O.2       1 <0>        -0.5132
     15 N2         -3.4599   -1.2111    0.0231 N.am      1 <0>        -0.6567
     16 C12        -4.7749   -0.7433    0.1344 C.ar      1 <0>         0.1303
     17 C13        -5.7200   -1.4869    0.8292 C.ar      1 <0>        -0.1237
     18 C14        -7.0164   -1.0254    0.9393 C.ar      1 <0>        -0.1247
     19 C15        -7.3756    0.1821    0.3549 C.ar      1 <0>         0.1258
     20 C16        -6.4307    0.9254   -0.3402 C.ar      1 <0>        -0.1009
     21 C17        -5.1328    0.4670   -0.4451 C.ar      1 <0>        -0.1012
     22 N3         -8.6912    0.6501    0.4663 N.am      1 <0>        -0.6737
     23 C18        -9.2540    1.3277   -0.5538 C.2       1 <0>         0.5093
     24 O2         -8.5957    1.6052   -1.5339 O.2       1 <0>        -0.5261
     25 C19       -10.7013    1.7405   -0.4766 C.3       1 <0>        -0.1700
     26 H1          1.0002    1.9291    0.0506 H         1 <0>         0.0742
     27 H2         -0.5493    1.9152   -0.8252 H         1 <0>         0.0950
     28 H3         -0.5326    1.8859    0.9545 H         1 <0>         0.0948
     29 H4          3.0548   -3.2901   -0.0282 H         1 <0>         0.1270
     30 H5          3.9413   -5.5842   -0.0688 H         1 <0>         0.1323
     31 H6          2.4014   -7.5023   -0.1035 H         1 <0>         0.1292
     32 H7         -0.0316   -7.1387   -0.0991 H         1 <0>         0.1316
     33 H8         -0.9380   -4.8526   -0.0471 H         1 <0>         0.1344
     34 H9         -3.2890   -2.1622   -0.0613 H         1 <0>         0.4188
     35 H10        -5.4409   -2.4263    1.2830 H         1 <0>         0.1304
     36 H11        -7.7513   -1.6036    1.4796 H         1 <0>         0.1304
     37 H12        -6.7102    1.8643   -0.7949 H         1 <0>         0.1422
     38 H13        -4.3968    1.0475   -0.9816 H         1 <0>         0.1426
     39 H14        -9.1971    0.4865    1.2776 H         1 <0>         0.4114
     40 H15       -11.1245    1.4059    0.4706 H         1 <0>         0.0785
     41 H16       -10.7736    2.8260   -0.5436 H         1 <0>         0.0992
     42 H17       -11.2527    1.2881   -1.3009 H         1 <0>         0.0997
@<TRIPOS>BOND
     1    1    2 1
     2    1   26 1
     3    1   27 1
     4    1   28 1
     5    2    6 1
     6    2    3 2
     7    3    4 1
     8    3   13 1
     9    4    5 2
    10    5    6 1
    11    5    7 1
    12    7   12 ar
    13    7    8 ar
    14    8    9 ar
    15    8   29 1
    16    9   10 ar
    17    9   30 1
    18   10   11 ar
    19   10   31 1
    20   11   12 ar
    21   11   32 1
    22   12   33 1
    23   13   14 2
    24   13   15 am
    25   15   16 1
    26   15   34 1
    27   16   21 ar
    28   16   17 ar
    29   17   18 ar
    30   17   35 1
    31   18   19 ar
    32   18   36 1
    33   19   20 ar
    34   19   22 1
    35   20   21 ar
    36   20   37 1
    37   21   38 1
    38   22   23 am
    39   22   39 1
    40   23   24 2
    41   23   25 1
    42   25   40 1
    43   25   41 1
    44   25   42 1
@<TRIPOS>MOLECULE
ZINC02809124
   41    43     0     0     0
SMALL
USER_CHARGES
N-(4-bromo-2-fluoro-phenyl)-3-(2-naphthylsulfonyl)propanamide
@<TRIPOS>ATOM
      1 C1        -11.1298   -2.7125    0.3178 C.ar      1 <0>        -0.0921
      2 C2        -10.7511   -2.2300    1.5693 C.ar      1 <0>        -0.1209
      3 C3         -9.8053   -1.2588    1.6891 C.ar      1 <0>        -0.0902
      4 C4         -9.1993   -0.7323    0.5356 C.ar      1 <0>        -0.0798
      5 C5         -8.2192    0.2715    0.6193 C.ar      1 <0>         0.0162
      6 C6         -7.6546    0.7579   -0.5194 C.ar      1 <0>        -0.6553
      7 C7         -8.0372    0.2792   -1.7713 C.ar      1 <0>        -0.0486
      8 C8         -8.9786   -0.6963   -1.8906 C.ar      1 <0>        -0.1152
      9 C9         -9.5844   -1.2229   -0.7370 C.ar      1 <0>        -0.0124
     10 C10       -10.5651   -2.2261   -0.8209 C.ar      1 <0>        -0.1195
     11 S1         -6.4266    2.0168   -0.4099 S.o2      1 <0>         2.4979
     12 O1         -6.7051    2.6898    0.8102 O.2       1 <0>        -0.9311
     13 O2         -6.5018    2.7055   -1.6506 O.2       1 <0>        -0.9282
     14 C11        -4.8528    1.1233   -0.2856 C.3       1 <0>        -0.5985
     15 C12        -3.7029    2.1275   -0.1841 C.3       1 <0>        -0.1358
     16 C13        -2.3955    1.3852   -0.0808 C.2       1 <0>         0.5272
     17 O3         -2.3845    0.1724   -0.0876 O.2       1 <0>        -0.5047
     18 N1         -1.2384    2.0691    0.0192 N.am      1 <0>        -0.6680
     19 C14        -0.0163    1.3848   -0.0015 C.ar      1 <0>         0.1346
     20 C15         0.0755    0.1438   -0.6164 C.ar      1 <0>        -0.1016
     21 C16         1.2830   -0.5266   -0.6406 C.ar      1 <0>        -0.0748
     22 C17         2.4016    0.0372   -0.0531 C.ar      1 <0>        -0.0847
     23 C18         2.3148    1.2737    0.5613 C.ar      1 <0>        -0.1025
     24 C19         1.1086    1.9499    0.5888 C.ar      1 <0>         0.0750
     25 F1          1.0237    3.1578    1.1880 F         1 <0>        -0.1292
     26 Br1         4.0524   -0.8844   -0.0895 Br        1 <0>        -0.0315
     27 H1        -11.8829   -3.4837    0.2506 H         1 <0>         0.1294
     28 H2        -11.2155   -2.6327    2.4574 H         1 <0>         0.1298
     29 H3         -9.5222   -0.8944    2.6655 H         1 <0>         0.1346
     30 H4         -7.9160    0.6551    1.5822 H         1 <0>         0.1487
     31 H5         -7.5766    0.6855   -2.6596 H         1 <0>         0.1425
     32 H6         -9.2624   -1.0602   -2.8671 H         1 <0>         0.1378
     33 H7        -10.8684   -2.6095   -1.7839 H         1 <0>         0.1335
     34 H8         -4.7163    0.5029   -1.1713 H         1 <0>         0.1475
     35 H9         -4.8629    0.4915    0.6026 H         1 <0>         0.1463
     36 H10        -3.8395    2.7480    0.7016 H         1 <0>         0.1197
     37 H11        -3.6929    2.7593   -1.0723 H         1 <0>         0.1212
     38 H12        -1.2519    3.0352    0.1054 H         1 <0>         0.4203
     39 H13        -0.7967   -0.2973   -1.0761 H         1 <0>         0.1650
     40 H14         1.3542   -1.4922   -1.1191 H         1 <0>         0.1458
     41 H15         3.1895    1.7115    1.0191 H         1 <0>         0.1517
@<TRIPOS>BOND
     1    1   10 ar
     2    1    2 ar
     3    1   27 1
     4    2    3 ar
     5    2   28 1
     6    3    4 ar
     7    3   29 1
     8    4    9 ar
     9    4    5 ar
    10    5    6 ar
    11    5   30 1
    12    6    7 ar
    13    6   11 1
    14    7    8 ar
    15    7   31 1
    16    8    9 ar
    17    8   32 1
    18    9   10 ar
    19   10   33 1
    20   11   12 2
    21   11   13 2
    22   11   14 1
    23   14   15 1
    24   14   34 1
    25   14   35 1
    26   15   16 1
    27   15   36 1
    28   15   37 1
    29   16   17 2
    30   16   18 am
    31   18   19 1
    32   18   38 1
    33   19   24 ar
    34   19   20 ar
    35   20   21 ar
    36   20   39 1
    37   21   22 ar
    38   21   40 1
    39   22   23 ar
    40   22   26 1
    41   23   24 ar
    42   23   41 1
    43   24   25 1
@<TRIPOS>MOLECULE
ZINC10646332
   32    33     0     0     0
SMALL
USER_CHARGES
2-(4-bromo-2-formyl-phenoxy)-N-(2-bromophenyl)-acetamide
@<TRIPOS>ATOM
      1 C1         -0.2413    5.6932   -0.3488 C.ar      1 <0>        -0.0833
      2 C2         -1.2554    6.3136    0.3580 C.ar      1 <0>        -0.1255
      3 C3         -2.2495    5.5589    0.9527 C.ar      1 <0>        -0.0726
      4 C4         -2.2326    4.1814    0.8425 C.ar      1 <0>        -0.1197
      5 C5         -1.2153    3.5556    0.1328 C.ar      1 <0>         0.1733
      6 C6         -0.2160    4.3167   -0.4591 C.ar      1 <0>        -0.1150
      7 N1         -1.1946    2.1607    0.0195 N.am      1 <0>        -0.6705
      8 C7         -0.0182    1.5031    0.0064 C.2       1 <0>         0.5167
      9 O1          1.0237    2.1240    0.0046 O.2       1 <0>        -0.4765
     10 C8          0.0025   -0.0036   -0.0124 C.3       1 <0>         0.0345
     11 O2          1.3562   -0.4612   -0.0303 O.3       1 <0>        -0.2549
     12 C9          1.5524   -1.8029   -0.0486 C.ar      1 <0>         0.1966
     13 C10         0.4667   -2.6659   -0.0495 C.ar      1 <0>        -0.2204
     14 C11         0.6673   -4.0316   -0.0686 C.ar      1 <0>        -0.0160
     15 C12         1.9524   -4.5530   -0.0871 C.ar      1 <0>        -0.1442
     16 C13         3.0440   -3.7126   -0.0866 C.ar      1 <0>        -0.0012
     17 C14         2.8558   -2.3251   -0.0726 C.ar      1 <0>        -0.2128
     18 C15         4.0133   -1.4226   -0.0776 C.2       1 <0>         0.3718
     19 O3          3.8458   -0.2213   -0.0610 O.2       1 <0>        -0.4249
     20 Br1         2.2074   -6.4266   -0.1126 Br        1 <0>        -0.0384
     21 Br2        -3.5919    3.1496    1.6572 Br        1 <0>        -0.0444
     22 H1          0.5341    6.2857   -0.8115 H         1 <0>         0.1358
     23 H2         -1.2706    7.3899    0.4457 H         1 <0>         0.1355
     24 H3         -3.0399    6.0464    1.5042 H         1 <0>         0.1383
     25 H4          0.5784    3.8330   -1.0080 H         1 <0>         0.1494
     26 H5         -2.0268    1.6673   -0.0497 H         1 <0>         0.4144
     27 H6         -0.4982   -0.3850    0.8775 H         1 <0>         0.1038
     28 H7         -0.5142   -0.3631   -0.9023 H         1 <0>         0.1030
     29 H8         -0.5375   -2.2688   -0.0355 H         1 <0>         0.1437
     30 H9         -0.1822   -4.6985   -0.0696 H         1 <0>         0.1427
     31 H10         4.0429   -4.1230   -0.1010 H         1 <0>         0.1516
     32 H11         5.0141   -1.8280   -0.0962 H         1 <0>         0.1091
@<TRIPOS>BOND
     1    1    6 ar
     2    1    2 ar
     3    1   22 1
     4    2    3 ar
     5    2   23 1
     6    3    4 ar
     7    3   24 1
     8    4    5 ar
     9    4   21 1
    10    5    6 ar
    11    5    7 1
    12    6   25 1
    13    7    8 am
    14    7   26 1
    15    8    9 2
    16    8   10 1
    17   10   11 1
    18   10   27 1
    19   10   28 1
    20   11   12 1
    21   12   17 ar
    22   12   13 ar
    23   13   14 ar
    24   13   29 1
    25   14   15 ar
    26   14   30 1
    27   15   16 ar
    28   15   20 1
    29   16   17 ar
    30   16   31 1
    31   17   18 1
    32   18   19 2
    33   18   32 1
@<TRIPOS>MOLECULE
ZINC15037604
   41    43     0     0     0
SMALL
USER_CHARGES
3-[(5Z)-5-[(4-chlorophenyl)methylene]-4-oxo-2-thioxo-thiazolidin-3-yl]-N-(4-fluorophenyl)propanamide
@<TRIPOS>ATOM
      1 C1         -2.4910    2.7569   -5.8329 C.ar      1 <0>        -0.0736
      2 C2         -3.4352    2.6708   -6.8332 C.ar      1 <0>        -0.1063
      3 C3         -3.8208    3.8068   -7.5263 C.ar      1 <0>        -0.0079
      4 C4         -3.2657    5.0379   -7.2163 C.ar      1 <0>        -0.1128
      5 C5         -2.3247    5.1409   -6.2146 C.ar      1 <0>        -0.0602
      6 C6         -1.9301    3.9978   -5.5100 C.ar      1 <0>        -0.0992
      7 C7         -0.9272    4.0991   -4.4405 C.2       1 <0>         0.0931
      8 C8         -0.6831    3.0342   -3.6366 C.2       1 <0>        -0.2454
      9 C9          0.3762    2.8412   -2.6240 C.2       1 <0>         0.5459
     10 O1          1.2060    3.7012   -2.3945 O.2       1 <0>        -0.4520
     11 N1          0.3757    1.6863   -1.9798 N.am      1 <0>        -0.5215
     12 C10        -0.5430    0.7342   -2.2405 C.2       1 <0>         0.2555
     13 S1         -0.7036   -0.8124   -1.5242 S.2       1 <0>        -0.3240
     14 S2         -1.5533    1.4777   -3.5113 S.3       1 <0>         0.0815
     15 C11         1.4003    1.4331   -0.9638 C.3       1 <0>         0.0981
     16 C12         0.8949    1.9086    0.3998 C.3       1 <0>        -0.1546
     17 C13         1.9489    1.6481    1.4449 C.2       1 <0>         0.5268
     18 O2          3.0008    1.1328    1.1301 O.2       1 <0>        -0.5105
     19 N2          1.7227    1.9877    2.7294 N.am      1 <0>        -0.6693
     20 C14         2.7431    1.8543    3.6790 C.ar      1 <0>         0.1355
     21 C15         2.4277    1.6047    5.0080 C.ar      1 <0>        -0.1173
     22 C16         3.4358    1.4687    5.9422 C.ar      1 <0>        -0.1316
     23 C17         4.7600    1.5916    5.5562 C.ar      1 <0>         0.0833
     24 C18         5.0765    1.8457    4.2323 C.ar      1 <0>        -0.1314
     25 C19         4.0715    1.9772    3.2940 C.ar      1 <0>        -0.0963
     26 F1          5.7445    1.4638    6.4725 F         1 <0>        -0.1385
     27 Cl1        -5.0059    3.6873   -8.7893 Cl        1 <0>        -0.0511
     28 H1         -2.1881    1.8698   -5.2965 H         1 <0>         0.1383
     29 H2         -3.8725    1.7147   -7.0802 H         1 <0>         0.1462
     30 H3         -3.5715    5.9191   -7.7607 H         1 <0>         0.1457
     31 H4         -1.8932    6.1012   -5.9738 H         1 <0>         0.1470
     32 H5         -0.3846    5.0215   -4.2946 H         1 <0>         0.1681
     33 H6          1.6126    0.3648   -0.9202 H         1 <0>         0.1247
     34 H7          2.3104    1.9741   -1.2228 H         1 <0>         0.1158
     35 H8          0.6826    2.9769    0.3563 H         1 <0>         0.1062
     36 H9         -0.0152    1.3676    0.6589 H         1 <0>         0.1100
     37 H10         0.8530    2.3246    2.9961 H         1 <0>         0.4148
     38 H11         1.3949    1.5129    5.3103 H         1 <0>         0.1373
     39 H12         3.1911    1.2708    6.9753 H         1 <0>         0.1412
     40 H13         6.1098    1.9415    3.9332 H         1 <0>         0.1404
     41 H14         4.3187    2.1757    2.2616 H         1 <0>         0.1484
@<TRIPOS>BOND
     1    1    6 ar
     2    1    2 ar
     3    1   28 1
     4    2    3 ar
     5    2   29 1
     6    3    4 ar
     7    3   27 1
     8    4    5 ar
     9    4   30 1
    10    5    6 ar
    11    5   31 1
    12    6    7 1
    13    7    8 2
    14    7   32 1
    15    8   14 1
    16    8    9 1
    17    9   10 2
    18    9   11 am
    19   11   12 1
    20   11   15 1
    21   12   13 2
    22   12   14 1
    23   15   16 1
    24   15   33 1
    25   15   34 1
    26   16   17 1
    27   16   35 1
    28   16   36 1
    29   17   18 2
    30   17   19 am
    31   19   20 1
    32   19   37 1
    33   20   25 ar
    34   20   21 ar
    35   21   22 ar
    36   21   38 1
    37   22   23 ar
    38   22   39 1
    39   23   24 ar
    40   23   26 1
    41   24   25 ar
    42   24   40 1
    43   25   41 1
@<TRIPOS>MOLECULE
ZINC33599875
   48    50     0     0     0
SMALL
USER_CHARGES
N-(2-isopropyl-6-methyl-phenyl)-2-[(4-phenyl-5-thioxo-1,3,4-thiadiazol-2-yl)sulfanyl]acetamide
@<TRIPOS>ATOM
      1 C1          3.8726   -5.6505   -0.7173 C.3       1 <0>        -0.1457
      2 C2          2.9917   -6.8507   -0.4836 C.ar      1 <0>        -0.0670
      3 C3          3.5283   -8.1226   -0.5339 C.ar      1 <0>        -0.1139
      4 C4          2.7196   -9.2244   -0.3252 C.ar      1 <0>        -0.1136
      5 C5          1.3726   -9.0570   -0.0600 C.ar      1 <0>        -0.1110
      6 C6          0.8312   -7.7879   -0.0027 C.ar      1 <0>        -0.0794
      7 C7          1.6409   -6.6790   -0.2118 C.ar      1 <0>         0.1346
      8 N1          1.0954   -5.3917   -0.1545 N.am      1 <0>        -0.6713
      9 C8          1.6591   -4.4555    0.6344 C.2       1 <0>         0.5346
     10 O1          2.5986   -4.7462    1.3442 O.2       1 <0>        -0.4947
     11 C9          1.1219   -3.0475    0.6346 C.3       1 <0>        -0.1944
     12 S1          2.0821   -2.0356    1.7878 S.3       1 <0>         0.1962
     13 C10         1.2630   -0.4879    1.5921 C.2       1 <0>         0.0485
     14 N2          1.5110    0.6557    2.1789 N.2       1 <0>        -0.2390
     15 N3          0.7512    1.7664    1.8920 N.pl3     1 <0>        -0.2987
     16 C11        -0.2566    1.6502    0.9912 C.2       1 <0>         0.2414
     17 S2         -1.3560    2.8367    0.4303 S.2       1 <0>        -0.3673
     18 S3         -0.1212   -0.0736    0.5427 S.3       1 <0>         0.0446
     19 C12         1.0129    2.9906    2.5162 C.ar      1 <0>         0.1071
     20 C13         0.8426    4.1789    1.8171 C.ar      1 <0>        -0.0915
     21 C14         1.0972    5.3860    2.4378 C.ar      1 <0>        -0.1038
     22 C15         1.5313    5.4121    3.7506 C.ar      1 <0>        -0.1002
     23 C16         1.7069    4.2308    4.4479 C.ar      1 <0>        -0.1115
     24 C17         1.4491    3.0205    3.8349 C.ar      1 <0>        -0.0911
     25 C18        -0.6365   -7.6064    0.2869 C.3       1 <0>        -0.0551
     26 C19        -1.4604   -8.3103   -0.7933 C.3       1 <0>        -0.1471
     27 C20        -0.9652   -8.2104    1.6536 C.3       1 <0>        -0.1453
     28 H1          4.9018   -5.9842   -0.9157 H         1 <0>         0.0636
     29 H2          3.8611   -5.0079    0.1754 H         1 <0>         0.1080
     30 H3          3.4978   -5.0835   -1.5822 H         1 <0>         0.0618
     31 H4          4.5797   -8.2566   -0.7412 H         1 <0>         0.1255
     32 H5          3.1407  -10.2179   -0.3692 H         1 <0>         0.1249
     33 H6          0.7436   -9.9196    0.1029 H         1 <0>         0.1257
     34 H7          0.2066   -5.1438   -0.7533 H         1 <0>         0.4361
     35 H8          1.2011   -2.6247   -0.3778 H         1 <0>         0.1360
     36 H9          0.0670   -3.0575    0.9463 H         1 <0>         0.1358
     37 H10         0.5078    4.1590    0.7904 H         1 <0>         0.1505
     38 H11         0.9611    6.3103    1.8962 H         1 <0>         0.1380
     39 H12         1.7334    6.3573    4.2325 H         1 <0>         0.1331
     40 H13         2.0464    4.2547    5.4728 H         1 <0>         0.1356
     41 H14         1.5861    2.0983    4.3800 H         1 <0>         0.1332
     42 H15        -0.8642   -6.5302    0.2891 H         1 <0>         0.0740
     43 H16        -2.5317   -8.1778   -0.5819 H         1 <0>         0.0608
     44 H17        -1.2177   -9.3832   -0.7987 H         1 <0>         0.0599
     45 H18        -1.2241   -7.8760   -1.7759 H         1 <0>         0.0564
     46 H19        -2.0365   -8.0779    1.8649 H         1 <0>         0.0602
     47 H20        -0.3729   -7.7043    2.4302 H         1 <0>         0.0559
     48 H21        -0.7225   -9.2833    1.6483 H         1 <0>         0.0595
@<TRIPOS>BOND
     1    1    2 1
     2    1   28 1
     3    1   29 1
     4    1   30 1
     5    2    7 ar
     6    2    3 ar
     7    3    4 ar
     8    3   31 1
     9    4    5 ar
    10    4   32 1
    11    5    6 ar
    12    5   33 1
    13    6    7 ar
    14    6   25 1
    15    7    8 1
    16    8    9 am
    17    8   34 1
    18    9   10 2
    19    9   11 1
    20   11   12 1
    21   11   35 1
    22   11   36 1
    23   12   13 1
    24   13   18 1
    25   13   14 2
    26   14   15 1
    27   15   16 1
    28   15   19 1
    29   16   17 2
    30   16   18 1
    31   19   24 ar
    32   19   20 ar
    33   20   21 ar
    34   20   37 1
    35   21   22 ar
    36   21   38 1
    37   22   23 ar
    38   22   39 1
    39   23   24 ar
    40   23   40 1
    41   24   41 1
    42   25   26 1
    43   25   27 1
    44   25   42 1
    45   26   43 1
    46   26   44 1
    47   26   45 1
    48   27   46 1
    49   27   47 1
    50   27   48 1
@<TRIPOS>MOLECULE
ZINC46791966
   49    50     0     0     0
SMALL
USER_CHARGES

@<TRIPOS>ATOM
      1 C1          0.2210    1.5366   -0.1657 C.3       1 <0>        -0.1285
      2 C2         -0.0251    0.0379    0.0199 C.3       1 <0>        -0.0863
      3 C3          0.8163   -0.4761    1.1898 C.3       1 <0>        -0.1537
      4 C4         -1.5073   -0.2029    0.3132 C.3       1 <0>        -0.1583
      5 C5          0.3634   -0.6946   -1.2384 C.2       1 <0>         0.5262
      6 O1          0.9199   -0.1014   -2.1381 O.2       1 <0>        -0.5343
      7 N1          0.0926   -2.0089   -1.3640 N.am      1 <0>        -0.6131
      8 C6         -0.4698   -2.7681   -0.2389 C.3       1 <0>         0.0888
      9 C7          0.4137   -3.9923    0.0206 C.3       1 <0>        -0.1456
     10 C8          0.5552   -4.7978   -1.2730 C.3       1 <0>         0.1473
     11 C9          1.2281   -3.9344   -2.3426 C.3       1 <0>        -0.1437
     12 C10         0.3485   -2.7082   -2.6306 C.3       1 <0>         0.1130
     13 N2          1.3725   -5.9871   -1.0206 N.am      1 <0>        -0.7218
     14 C11         1.2372   -7.0762   -1.8028 C.2       1 <0>         0.5351
     15 O2          0.4388   -7.0717   -2.7158 O.2       1 <0>        -0.5133
     16 C12         2.0779   -8.2997   -1.5431 C.3       1 <0>        -0.1584
     17 S1          1.6661   -9.5848   -2.7553 S.3       1 <0>        -0.0171
     18 C13         2.7182  -10.9307   -2.3237 C.ar      1 <0>        -0.0871
     19 C14         3.5903  -10.8156   -1.2479 C.ar      1 <0>        -0.1333
     20 C15         4.4132  -11.8723   -0.9120 C.ar      1 <0>        -0.0685
     21 C16         4.3700  -13.0450   -1.6453 C.ar      1 <0>        -0.0987
     22 C17         3.5027  -13.1628   -2.7171 C.ar      1 <0>        -0.0681
     23 C18         2.6735  -12.1116   -3.0549 C.ar      1 <0>        -0.0931
     24 Br1         5.4992  -14.4895   -1.1821 Br        1 <0>        -0.0455
     25 H1          1.2770    1.7082   -0.3746 H         1 <0>         0.0640
     26 H2         -0.3785    1.9028   -0.9991 H         1 <0>         0.0611
     27 H3         -0.0600    2.0664    0.7445 H         1 <0>         0.0634
     28 H4          0.3939   -0.1151    2.1275 H         1 <0>         0.0721
     29 H5          0.8154   -1.5661    1.1867 H         1 <0>         0.0679
     30 H6          1.8392   -0.1133    1.0886 H         1 <0>         0.0645
     31 H7         -2.0930    0.0015   -0.5831 H         1 <0>         0.0617
     32 H8         -1.6542   -1.2401    0.6144 H         1 <0>         0.0735
     33 H9         -1.8307    0.4582    1.1172 H         1 <0>         0.0704
     34 H10        -0.4932   -2.1392    0.6510 H         1 <0>         0.1174
     35 H11        -1.4806   -3.0928   -0.4861 H         1 <0>         0.0752
     36 H12         1.3984   -3.6660    0.3554 H         1 <0>         0.0760
     37 H13        -0.0443   -4.6154    0.7888 H         1 <0>         0.0863
     38 H14        -0.4318   -5.1028   -1.6207 H         1 <0>         0.0945
     39 H15         2.2050   -3.6085   -1.9854 H         1 <0>         0.0704
     40 H16         1.3497   -4.5161   -3.2563 H         1 <0>         0.0823
     41 H17        -0.5969   -3.0281   -3.0688 H         1 <0>         0.0723
     42 H18         0.8652   -2.0397   -3.3192 H         1 <0>         0.0976
     43 H19         2.0110   -5.9907   -0.2904 H         1 <0>         0.4027
     44 H20         3.1330   -8.0410   -1.6321 H         1 <0>         0.1196
     45 H21         1.8783   -8.6710   -0.5379 H         1 <0>         0.1197
     46 H22         3.6246   -9.9004   -0.6755 H         1 <0>         0.1297
     47 H23         5.0914  -11.7833   -0.0762 H         1 <0>         0.1365
     48 H24         3.4714  -14.0794   -3.2874 H         1 <0>         0.1400
     49 H25         1.9936  -12.2058   -3.8887 H         1 <0>         0.1393
@<TRIPOS>BOND
     1    1    2 1
     2    1   25 1
     3    1   26 1
     4    1   27 1
     5    2    3 1
     6    2    4 1
     7    2    5 1
     8    3   28 1
     9    3   29 1
    10    3   30 1
    11    4   31 1
    12    4   32 1
    13    4   33 1
    14    5    6 2
    15    5    7 am
    16    7   12 1
    17    7    8 1
    18    8    9 1
    19    8   34 1
    20    8   35 1
    21    9   10 1
    22    9   36 1
    23    9   37 1
    24   10   11 1
    25   10   13 1
    26   10   38 1
    27   11   12 1
    28   11   39 1
    29   11   40 1
    30   12   41 1
    31   12   42 1
    32   13   14 am
    33   13   43 1
    34   14   15 2
    35   14   16 1
    36   16   17 1
    37   16   44 1
    38   16   45 1
    39   17   18 1
    40   18   23 ar
    41   18   19 ar
    42   19   20 ar
    43   19   46 1
    44   20   21 ar
    45   20   47 1
    46   21   22 ar
    47   21   24 1
    48   22   23 ar
    49   22   48 1
    50   23   49 1
@<TRIPOS>MOLECULE
ZINC10885584
   46    48     0     0     0
SMALL
USER_CHARGES
2-[1-(4-bromophenyl)imidazol-2-yl]sulfanyl-N-(1-phenylethyl)propanamide
@<TRIPOS>ATOM
      1 C1         -0.0127    1.0858    0.0080 C.3       1 <0>        -0.1593
      2 C2         -0.7288    1.5792    1.2668 C.3       1 <0>         0.1849
      3 H1         -0.2017    1.2182    2.1499 H         1 <0>         0.0995
      4 C3         -2.1427    1.0576    1.2775 C.ar      1 <0>        -0.0947
      5 C4         -3.1170    1.6863    0.5250 C.ar      1 <0>        -0.1153
      6 C5         -4.4129    1.2052    0.5314 C.ar      1 <0>        -0.1149
      7 C6         -4.7365    0.1009    1.2974 C.ar      1 <0>        -0.1173
      8 C7         -3.7632   -0.5246    2.0540 C.ar      1 <0>        -0.1145
      9 C8         -2.4664   -0.0461    2.0442 C.ar      1 <0>        -0.1066
     10 N1         -0.7487    3.0441    1.2749 N.am      1 <0>        -0.7164
     11 C9          0.3046    3.7296    1.7618 C.2       1 <0>         0.5382
     12 O1          1.2688    3.1339    2.1933 O.2       1 <0>        -0.5207
     13 C10         0.2841    5.2365    1.7701 C.3       1 <0>        -0.1071
     14 H2         -0.7108    5.5848    2.0475 H         1 <0>         0.1231
     15 C11         0.6372    5.7590    0.3761 C.3       1 <0>        -0.1442
     16 S1          1.4940    5.8497    2.9686 S.3       1 <0>         0.0611
     17 C12         1.1592    7.5776    2.8845 C.2       1 <0>         0.1865
     18 N2          0.2589    8.1494    2.1190 N.2       1 <0>        -0.4807
     19 C13         0.2815    9.4777    2.3210 C.2       1 <0>        -0.0097
     20 C14         1.2295    9.7522    3.2333 C.2       1 <0>        -0.0388
     21 N3          1.7952    8.5495    3.5993 N.pl3     1 <0>        -0.4031
     22 C15         2.8274    8.3613    4.5295 C.ar      1 <0>         0.1293
     23 C16         2.6876    7.4226    5.5427 C.ar      1 <0>        -0.1045
     24 C17         3.7076    7.2361    6.4552 C.ar      1 <0>        -0.0691
     25 C18         4.8637    7.9908    6.3661 C.ar      1 <0>        -0.0855
     26 C19         5.0035    8.9304    5.3601 C.ar      1 <0>        -0.0730
     27 C20         3.9884    9.1173    4.4423 C.ar      1 <0>        -0.1043
     28 Br1         6.2549    7.7383    7.6217 Br        1 <0>        -0.0343
     29 H3          0.0021   -0.0041    0.0020 H         1 <0>         0.0704
     30 H4          1.0099    1.4631    0.0003 H         1 <0>         0.0669
     31 H5         -0.5399    1.4469   -0.8751 H         1 <0>         0.0604
     32 H6         -2.8651    2.5513   -0.0705 H         1 <0>         0.1202
     33 H7         -5.1732    1.6937   -0.0600 H         1 <0>         0.1247
     34 H8         -5.7495   -0.2734    1.3045 H         1 <0>         0.1240
     35 H9         -4.0160   -1.3874    2.6525 H         1 <0>         0.1255
     36 H10        -1.7060   -0.5348    2.6353 H         1 <0>         0.1254
     37 H11        -1.5199    3.5206    0.9298 H         1 <0>         0.4028
     38 H12         0.6224    6.8489    0.3821 H         1 <0>         0.0939
     39 H13         1.6321    5.4106    0.0987 H         1 <0>         0.0688
     40 H14        -0.0914    5.3897   -0.3456 H         1 <0>         0.0692
     41 H15        -0.3516   10.2021    1.8303 H         1 <0>         0.1798
     42 H16         1.4970   10.7289    3.6084 H         1 <0>         0.1824
     43 H17         1.7836    6.8363    5.6154 H         1 <0>         0.1437
     44 H18         3.6009    6.5033    7.2414 H         1 <0>         0.1466
     45 H19         5.9069    9.5183    5.2926 H         1 <0>         0.1456
     46 H20         4.0977    9.8513    3.6576 H         1 <0>         0.1413
@<TRIPOS>BOND
     1    1    2 1
     2    1   29 1
     3    1   30 1
     4    1   31 1
     5    2    3 1
     6    2    4 1
     7    2   10 1
     8    4    9 ar
     9    4    5 ar
    10    5    6 ar
    11    5   32 1
    12    6    7 ar
    13    6   33 1
    14    7    8 ar
    15    7   34 1
    16    8    9 ar
    17    8   35 1
    18    9   36 1
    19   10   11 am
    20   10   37 1
    21   11   12 2
    22   11   13 1
    23   13   14 1
    24   13   15 1
    25   13   16 1
    26   15   38 1
    27   15   39 1
    28   15   40 1
    29   16   17 1
    30   17   21 1
    31   17   18 2
    32   18   19 1
    33   19   20 2
    34   19   41 1
    35   20   21 1
    36   20   42 1
    37   21   22 1
    38   22   27 ar
    39   22   23 ar
    40   23   24 ar
    41   23   43 1
    42   24   25 ar
    43   24   44 1
    44   25   26 ar
    45   25   28 1
    46   26   27 ar
    47   26   45 1
    48   27   46 1
@<TRIPOS>MOLECULE
ZINC12996912
   44    45     0     0     0
SMALL
USER_CHARGES
4,5-dibromo-N-[(2S)-4-methyl-2-morpholino-pentyl]thiophene-2-carboxamide
@<TRIPOS>ATOM
      1 C1         -0.7383    0.5059   -2.4855 C.3       1 <0>        -0.1489
      2 C2         -1.2877    0.9789   -1.1382 C.3       1 <0>        -0.1090
      3 C3         -2.4895    0.1169   -0.7465 C.3       1 <0>        -0.1536
      4 C4         -0.1992    0.8516   -0.0705 C.3       1 <0>        -0.1437
      5 C5         -0.7388    1.3536    1.2703 C.3       1 <0>         0.0666
      6 H1         -1.6887    0.8557    1.5151 H         1 <0>         0.0926
      7 C6          0.2989    1.0987    2.3653 C.3       1 <0>         0.1371
      8 N1         -0.1650    1.6871    3.6242 N.am      1 <0>        -0.7150
      9 C7          0.6350    1.6753    4.7088 C.2       1 <0>         0.6022
     10 O1          1.7430    1.1758    4.6423 O.2       1 <0>        -0.5226
     11 C8          0.1711    2.2636    5.9676 C.2       1 <0>        -0.2060
     12 C9          0.8293    2.3540    7.1847 C.2       1 <0>        -0.0630
     13 C10         0.1573    2.9625    8.2152 C.2       1 <0>        -0.1040
     14 C11        -1.0987    3.4391    7.9983 C.2       1 <0>        -0.1741
     15 S1         -1.3846    3.0573    6.3316 S.3       1 <0>         0.2408
     16 Br1        -2.2499    4.3137    9.2172 Br        1 <0>         0.0721
     17 Br2         0.9670    3.1369    9.9152 Br        1 <0>        -0.0061
     18 N2         -1.0115    2.7943    1.1799 N.3       1 <0>        -0.5292
     19 C12        -2.4001    3.0427    0.7658 C.3       1 <0>        -0.0006
     20 C13        -2.6578    4.5516    0.7424 C.3       1 <0>         0.0608
     21 O2         -1.7126    5.1781   -0.1290 O.3       1 <0>        -0.3831
     22 C14        -0.3501    4.9573    0.2452 C.3       1 <0>         0.0608
     23 C15        -0.0690    3.4524    0.2636 C.3       1 <0>         0.0081
     24 H2          0.1258    1.1257   -2.7671 H         1 <0>         0.0546
     25 H3         -1.5209    0.5974   -3.2531 H         1 <0>         0.0564
     26 H4         -0.4248   -0.5454   -2.4049 H         1 <0>         0.0563
     27 H5         -1.6012    2.0302   -1.2188 H         1 <0>         0.0822
     28 H6         -2.8845    0.4570    0.2222 H         1 <0>         0.0559
     29 H7         -2.1760   -0.9344   -0.6660 H         1 <0>         0.0578
     30 H8         -3.2721    0.2084   -1.5141 H         1 <0>         0.0566
     31 H9          0.0985   -0.2030    0.0257 H         1 <0>         0.0750
     32 H10         0.6736    1.4537   -0.3631 H         1 <0>         0.0773
     33 H11         0.4359    0.0151    2.4955 H         1 <0>         0.0743
     34 H12         1.2563    1.5572    2.0771 H         1 <0>         0.0733
     35 H13        -1.1663    2.1386    3.6843 H         1 <0>         0.4233
     36 H14         1.8274    1.9629    7.3160 H         1 <0>         0.1645
     37 H15        -2.5634    2.6252   -0.2387 H         1 <0>         0.0644
     38 H16        -3.0868    2.5625    1.4785 H         1 <0>         0.0854
     39 H17        -3.6780    4.7437    0.3788 H         1 <0>         0.0985
     40 H18        -2.5481    4.9581    1.7586 H         1 <0>         0.0593
     41 H19         0.3139    5.4474   -0.4820 H         1 <0>         0.0981
     42 H20        -0.1719    5.3778    1.2459 H         1 <0>         0.0587
     43 H21         0.9608    3.2739    0.6065 H         1 <0>         0.0859
     44 H22        -0.1947    3.0415   -0.7490 H         1 <0>         0.0602
@<TRIPOS>BOND
     1    1    2 1
     2    1   24 1
     3    1   25 1
     4    1   26 1
     5    2    3 1
     6    2    4 1
     7    2   27 1
     8    3   28 1
     9    3   29 1
    10    3   30 1
    11    4    5 1
    12    4   31 1
    13    4   32 1
    14    5    6 1
    15    5    7 1
    16    5   18 1
    17    7    8 1
    18    7   33 1
    19    7   34 1
    20    8    9 am
    21    8   35 1
    22    9   10 2
    23    9   11 1
    24   11   15 1
    25   11   12 2
    26   12   13 1
    27   12   36 1
    28   13   14 2
    29   13   17 1
    30   14   15 1
    31   14   16 1
    32   18   23 1
    33   18   19 1
    34   19   20 1
    35   19   37 1
    36   19   38 1
    37   20   21 1
    38   20   39 1
    39   20   40 1
    40   21   22 1
    41   22   23 1
    42   22   41 1
    43   22   42 1
    44   23   43 1
    45   23   44 1
@<TRIPOS>MOLECULE
ZINC09465982
   50    51     0     0     0
SMALL
USER_CHARGES

@<TRIPOS>ATOM
      1 C1          0.1482    1.2776    0.0287 C.3       1 <0>        -0.1529
      2 C2          0.1467   -0.2495   -0.0651 C.3       1 <0>        -0.0997
      3 C3          0.9240   -0.8339    1.1161 C.3       1 <0>        -0.1505
      4 C4         -1.2948   -0.7612   -0.0303 C.3       1 <0>         0.1104
      5 O1         -1.3033   -2.1755   -0.2346 O.3       1 <0>        -0.7337
      6 P1         -2.6429   -3.0650   -0.1547 P.3       1 <0>         2.4853
      7 O2         -3.3038   -2.8452    1.1511 O.2       1 <0>        -1.0009
      8 C5         -2.2151   -4.8193   -0.3281 C.ar      1 <0>        -0.7903
      9 C6         -1.1107   -5.1897   -1.0733 C.ar      1 <0>        -0.0136
     10 C7         -0.7821   -6.5243   -1.2074 C.ar      1 <0>        -0.2160
     11 C8         -1.5625   -7.4952   -0.5926 C.ar      1 <0>         0.2541
     12 C9         -2.6712   -7.1197    0.1553 C.ar      1 <0>        -0.2155
     13 C10        -2.9908   -5.7829    0.2900 C.ar      1 <0>         0.0190
     14 N1         -1.2334   -8.8460   -0.7265 N.pl3     1 <0>        -0.6312
     15 C11        -0.0640   -9.2402   -1.5160 C.3       1 <0>         0.0870
     16 C12        -2.0575   -9.8686   -0.0774 C.3       1 <0>         0.0864
     17 C13        -3.7754   -2.5801   -1.4984 C.3       1 <0>        -0.4768
     18 H1         -3.9668   -1.5084   -1.4432 H         1 <0>         0.1415
     19 C14        -5.0745   -3.3304   -1.3557 C.ar      1 <0>        -0.1028
     20 C15        -5.2068   -4.5932   -1.9023 C.ar      1 <0>        -0.1079
     21 C16        -6.3979   -5.2820   -1.7713 C.ar      1 <0>        -0.0851
     22 C17        -7.4578   -4.7074   -1.0931 C.ar      1 <0>        -0.0845
     23 C18        -7.3251   -3.4437   -0.5464 C.ar      1 <0>        -0.0840
     24 C19        -6.1318   -2.7579   -0.6734 C.ar      1 <0>        -0.0850
     25 Br1        -9.0880   -5.6489   -0.9141 Br        1 <0>        -0.0435
     26 O3         -3.1804   -2.8934   -2.7592 O.3       1 <0>        -0.5324
     27 H2          1.1751    1.6421    0.0039 H         1 <0>         0.0650
     28 H3         -0.4056    1.6939   -0.8128 H         1 <0>         0.0576
     29 H4         -0.3239    1.5847    0.9619 H         1 <0>         0.0613
     30 H5          0.6188   -0.5567   -0.9984 H         1 <0>         0.0831
     31 H6          1.9509   -0.4693    1.0912 H         1 <0>         0.0554
     32 H7          0.4519   -0.5267    2.0493 H         1 <0>         0.0581
     33 H8          0.9229   -1.9218    1.0492 H         1 <0>         0.0644
     34 H9         -1.7386   -0.5314    0.9384 H         1 <0>         0.0793
     35 H10        -1.8715   -0.2768   -0.8182 H         1 <0>         0.0605
     36 H11        -0.5046   -4.4343   -1.5514 H         1 <0>         0.1311
     37 H12         0.0803   -6.8129   -1.7899 H         1 <0>         0.1284
     38 H13        -3.2803   -7.8721    0.6343 H         1 <0>         0.1296
     39 H14        -3.8501   -5.4900    0.8749 H         1 <0>         0.1351
     40 H15         0.8139   -9.2781   -0.8710 H         1 <0>         0.0540
     41 H16        -0.2359  -10.2236   -1.9538 H         1 <0>         0.0713
     42 H17         0.1001   -8.5124   -2.3106 H         1 <0>         0.0712
     43 H18        -2.8498  -10.1821   -0.7571 H         1 <0>         0.0535
     44 H19        -1.4367  -10.7274    0.1778 H         1 <0>         0.0717
     45 H20        -2.4992   -9.4571    0.8302 H         1 <0>         0.0728
     46 H21        -4.3793   -5.0416   -2.4320 H         1 <0>         0.1266
     47 H22        -6.5012   -6.2684   -2.1986 H         1 <0>         0.1363
     48 H23        -8.1524   -2.9948   -0.0168 H         1 <0>         0.1412
     49 H24        -6.0267   -1.7730   -0.2430 H         1 <0>         0.1406
     50 H25        -2.9821   -3.8323   -2.8781 H         1 <0>         0.3743
@<TRIPOS>BOND
     1    1    2 1
     2    1   27 1
     3    1   28 1
     4    1   29 1
     5    2    3 1
     6    2    4 1
     7    2   30 1
     8    3   31 1
     9    3   32 1
    10    3   33 1
    11    4    5 1
    12    4   34 1
    13    4   35 1
    14    5    6 1
    15    6    7 2
    16    6    8 1
    17    6   17 1
    18    8   13 ar
    19    8    9 ar
    20    9   10 ar
    21    9   36 1
    22   10   11 ar
    23   10   37 1
    24   11   12 ar
    25   11   14 1
    26   12   13 ar
    27   12   38 1
    28   13   39 1
    29   14   15 1
    30   14   16 1
    31   15   40 1
    32   15   41 1
    33   15   42 1
    34   16   43 1
    35   16   44 1
    36   16   45 1
    37   17   18 1
    38   17   19 1
    39   17   26 1
    40   19   24 ar
    41   19   20 ar
    42   20   21 ar
    43   20   46 1
    44   21   22 ar
    45   21   47 1
    46   22   23 ar
    47   22   25 1
    48   23   24 ar
    49   23   48 1
    50   24   49 1
    51   26   50 1
@<TRIPOS>MOLECULE
ZINC45794320
   57    58     0     0     0
SMALL
USER_CHARGES

@<TRIPOS>ATOM
      1 C1         -1.9758    0.7069   -0.0264 C.3       1 <0>        -0.1645
      2 C2         -1.8509   -0.8118    0.1117 C.3       1 <0>         0.1404
      3 H1         -2.8106   -1.2290    0.4165 H         1 <0>         0.0879
      4 C3         -1.4370   -1.4138   -1.2326 C.3       1 <0>        -0.1279
      5 C4         -1.4331   -2.9402   -1.1283 C.3       1 <0>        -0.1206
      6 C5         -1.0192   -3.5422   -2.4726 C.3       1 <0>        -0.1151
      7 C6         -1.0153   -5.0686   -2.3683 C.3       1 <0>        -0.0985
      8 C7         -0.7234   -5.6730   -3.7432 C.3       1 <0>        -0.1492
      9 C8          0.0643   -5.5094   -1.3779 C.3       1 <0>        -0.1485
     10 N1         -0.8378   -1.1286    1.1213 N.am      1 <0>        -0.7243
     11 C9         -1.1753   -1.1675    2.4256 C.2       1 <0>         0.5183
     12 O1         -2.3177   -0.9401    2.7634 O.2       1 <0>        -0.5340
     13 C10        -0.1331   -1.4935    3.4642 C.3       1 <0>        -0.1079
     14 C11         0.4440   -2.8838    3.1885 C.3       1 <0>        -0.1258
     15 C12         1.5272   -3.1975    4.2253 C.3       1 <0>         0.0968
     16 N2          0.9559   -3.0369    5.5694 N.am      1 <0>        -0.6058
     17 C13         0.2955   -1.7693    5.9095 C.3       1 <0>         0.1111
     18 C14        -0.7738   -1.4716    4.8538 C.3       1 <0>        -0.1139
     19 C15         1.0357   -4.0337    6.4731 C.2       1 <0>         0.5616
     20 O2          0.6210   -3.8642    7.6031 O.2       1 <0>        -0.5244
     21 C16         1.6274   -5.3328    6.0901 C.ar      1 <0>        -0.1108
     22 C17         2.8761   -5.3778    5.4674 C.ar      1 <0>        -0.0877
     23 C18         3.4230   -6.5930    5.1124 C.ar      1 <0>        -0.0939
     24 C19         2.7362   -7.7670    5.3723 C.ar      1 <0>        -0.0732
     25 C20         1.4972   -7.7288    5.9896 C.ar      1 <0>        -0.0913
     26 C21         0.9425   -6.5201    6.3546 C.ar      1 <0>        -0.0635
     27 Br1         3.4930   -9.4290    4.8817 Br        1 <0>        -0.0393
     28 H2         -1.0161    1.1241   -0.3313 H         1 <0>         0.0565
     29 H3         -2.7296    0.9427   -0.7776 H         1 <0>         0.0660
     30 H4         -2.2707    1.1358    0.9313 H         1 <0>         0.0605
     31 H5         -2.1437   -1.1040   -2.0025 H         1 <0>         0.0790
     32 H6         -0.4382   -1.0649   -1.4948 H         1 <0>         0.0681
     33 H7         -0.7264   -3.2500   -0.3585 H         1 <0>         0.0649
     34 H8         -2.4320   -3.2890   -0.8662 H         1 <0>         0.0620
     35 H9         -1.7259   -3.2324   -3.2425 H         1 <0>         0.0618
     36 H10        -0.0204   -3.1934   -2.7348 H         1 <0>         0.0617
     37 H11        -1.9896   -5.4115   -2.0201 H         1 <0>         0.0681
     38 H12         0.2509   -5.3302   -4.0915 H         1 <0>         0.0539
     39 H13        -0.7207   -6.7605   -3.6689 H         1 <0>         0.0541
     40 H14        -1.4926   -5.3590   -4.4489 H         1 <0>         0.0537
     41 H15         1.0386   -5.1665   -1.7261 H         1 <0>         0.0535
     42 H16        -0.1436   -5.0788   -0.3983 H         1 <0>         0.0549
     43 H17         0.0671   -6.5968   -1.3036 H         1 <0>         0.0528
     44 H18         0.0759   -1.3105    0.8511 H         1 <0>         0.3984
     45 H19         0.6663   -0.7537    3.4212 H         1 <0>         0.1008
     46 H20        -0.3502   -3.6273    3.2558 H         1 <0>         0.0761
     47 H21         0.8795   -2.9055    2.1895 H         1 <0>         0.0819
     48 H22         1.8718   -4.2234    4.0949 H         1 <0>         0.0991
     49 H23         2.3637   -2.5101    4.0993 H         1 <0>         0.0778
     50 H24        -0.1725   -1.8527    6.8904 H         1 <0>         0.0996
     51 H25         1.0316   -0.9654    5.9208 H         1 <0>         0.0731
     52 H26        -1.2052   -0.4881    5.0401 H         1 <0>         0.0868
     53 H27        -1.5566   -2.2284    4.9054 H         1 <0>         0.0761
     54 H28         3.4126   -4.4628    5.2639 H         1 <0>         0.1397
     55 H29         4.3888   -6.6291    4.6303 H         1 <0>         0.1413
     56 H30         0.9662   -8.6478    6.1894 H         1 <0>         0.1418
     57 H31        -0.0219   -6.4919    6.8400 H         1 <0>         0.1405
@<TRIPOS>BOND
     1    1    2 1
     2    1   28 1
     3    1   29 1
     4    1   30 1
     5    2    3 1
     6    2    4 1
     7    2   10 1
     8    4    5 1
     9    4   31 1
    10    4   32 1
    11    5    6 1
    12    5   33 1
    13    5   34 1
    14    6    7 1
    15    6   35 1
    16    6   36 1
    17    7    8 1
    18    7    9 1
    19    7   37 1
    20    8   38 1
    21    8   39 1
    22    8   40 1
    23    9   41 1
    24    9   42 1
    25    9   43 1
    26   10   11 am
    27   10   44 1
    28   11   12 2
    29   11   13 1
    30   13   18 1
    31   13   14 1
    32   13   45 1
    33   14   15 1
    34   14   46 1
    35   14   47 1
    36   15   16 1
    37   15   48 1
    38   15   49 1
    39   16   17 1
    40   16   19 am
    41   17   18 1
    42   17   50 1
    43   17   51 1
    44   18   52 1
    45   18   53 1
    46   19   20 2
    47   19   21 1
    48   21   26 ar
    49   21   22 ar
    50   22   23 ar
    51   22   54 1
    52   23   24 ar
    53   23   55 1
    54   24   25 ar
    55   24   27 1
    56   25   26 ar
    57   25   56 1
    58   26   57 1
@<TRIPOS>MOLECULE
ZINC58951828
   54    56     0     0     0
SMALL
USER_CHARGES

@<TRIPOS>ATOM
      1 C1         -0.6402    1.4353   -0.3135 C.3       1 <0>        -0.1460
      2 C2         -0.4544   -0.0818   -0.2441 C.3       1 <0>         0.0919
      3 H1         -1.4276   -0.5702   -0.2923 H         1 <0>         0.0691
      4 C3          0.4091   -0.5454   -1.4203 C.3       1 <0>         0.0261
      5 N1          0.6482   -1.9915   -1.3059 N.3       1 <0>        -0.5205
      6 C4          1.3147   -2.3103   -0.0349 C.3       1 <0>         0.0120
      7 C5          0.4421   -1.8289    1.1274 C.3       1 <0>         0.0664
      8 O1          0.1934   -0.4280    0.9830 O.3       1 <0>        -0.3804
      9 C6          1.4273   -2.4882   -2.4479 C.3       1 <0>         0.1106
     10 H2          2.3999   -1.9964   -2.4656 H         1 <0>         0.0721
     11 C7          1.6225   -3.9997   -2.3134 C.3       1 <0>         0.1262
     12 N2          2.4619   -4.4834   -3.4123 N.am      1 <0>        -0.7320
     13 C8          2.6775   -5.8052   -3.5642 C.2       1 <0>         0.5148
     14 O2          2.1765   -6.5941   -2.7912 O.2       1 <0>        -0.5322
     15 C9          3.5410   -6.3028   -4.6946 C.3       1 <0>        -0.1378
     16 C10         3.6224   -7.8296   -4.6402 C.3       1 <0>        -0.0652
     17 C11         4.4859   -8.3272   -5.7705 C.ar      1 <0>        -0.0645
     18 C12         3.9165   -8.6264   -6.9944 C.ar      1 <0>        -0.0961
     19 C13         4.7064   -9.0829   -8.0326 C.ar      1 <0>        -0.1216
     20 C14         6.0691   -9.2406   -7.8479 C.ar      1 <0>         0.0639
     21 C15         6.6401   -8.9402   -6.6207 C.ar      1 <0>         0.0711
     22 C16         5.8470   -8.4786   -5.5844 C.ar      1 <0>        -0.1228
     23 F1          7.9698   -9.0938   -6.4378 F         1 <0>        -0.1272
     24 F2          6.8418   -9.6872   -8.8621 F         1 <0>        -0.1279
     25 C17         0.6897   -2.1888   -3.7275 C.ar      1 <0>        -0.1191
     26 C18        -0.6710   -2.4294   -3.8152 C.ar      1 <0>         0.1450
     27 C19        -1.3475   -2.1540   -4.9913 C.ar      1 <0>        -0.1532
     28 C20        -0.6644   -1.6391   -6.0772 C.ar      1 <0>        -0.0721
     29 C21         0.6937   -1.3990   -5.9897 C.ar      1 <0>        -0.1204
     30 C22         1.3704   -1.6683   -4.8130 C.ar      1 <0>        -0.0121
     31 Cl1         3.0751   -1.3596   -4.7018 Cl        1 <0>        -0.0532
     32 F3         -1.3381   -2.9330   -2.7538 F         1 <0>        -0.1100
     33 H3          0.3334    1.9231   -0.2653 H         1 <0>         0.0632
     34 H4         -1.1325    1.6986   -1.2496 H         1 <0>         0.0720
     35 H5         -1.2537    1.7649    0.5250 H         1 <0>         0.0690
     36 H6         -0.1079   -0.3350   -2.3565 H         1 <0>         0.0829
     37 H7          1.3619   -0.0164   -1.4031 H         1 <0>         0.0469
     38 H8          1.4588   -3.3881    0.0402 H         1 <0>         0.0938
     39 H9          2.2820   -1.8095    0.0045 H         1 <0>         0.0478
     40 H10        -0.5048   -2.3688    1.1196 H         1 <0>         0.0628
     41 H11         0.9582   -2.0117    2.0700 H         1 <0>         0.1016
     42 H12         2.1066   -4.2203   -1.3620 H         1 <0>         0.0783
     43 H13         0.6528   -4.4960   -2.3513 H         1 <0>         0.0854
     44 H14         2.8626   -3.8525   -4.0305 H         1 <0>         0.3982
     45 H15         3.1066   -5.9957   -5.6460 H         1 <0>         0.0982
     46 H16         4.5420   -5.8819   -4.5995 H         1 <0>         0.0977
     47 H17         4.0568   -8.1367   -3.6888 H         1 <0>         0.0877
     48 H18         2.6214   -8.2505   -4.7352 H         1 <0>         0.0895
     49 H19         2.8534   -8.5035   -7.1392 H         1 <0>         0.1419
     50 H20         4.2604   -9.3169   -8.9880 H         1 <0>         0.1478
     51 H21         6.2912   -8.2407   -4.6292 H         1 <0>         0.1468
     52 H22        -2.4088   -2.3417   -5.0605 H         1 <0>         0.1448
     53 H23        -1.1924   -1.4247   -6.9946 H         1 <0>         0.1454
     54 H24         1.2265   -0.9970   -6.8388 H         1 <0>         0.1434
@<TRIPOS>BOND
     1    1    2 1
     2    1   33 1
     3    1   34 1
     4    1   35 1
     5    2    3 1
     6    2    8 1
     7    2    4 1
     8    4    5 1
     9    4   36 1
    10    4   37 1
    11    5    6 1
    12    5    9 1
    13    6    7 1
    14    6   38 1
    15    6   39 1
    16    7    8 1
    17    7   40 1
    18    7   41 1
    19    9   10 1
    20    9   11 1
    21    9   25 1
    22   11   12 1
    23   11   42 1
    24   11   43 1
    25   12   13 am
    26   12   44 1
    27   13   14 2
    28   13   15 1
    29   15   16 1
    30   15   45 1
    31   15   46 1
    32   16   17 1
    33   16   47 1
    34   16   48 1
    35   17   22 ar
    36   17   18 ar
    37   18   19 ar
    38   18   49 1
    39   19   20 ar
    40   19   50 1
    41   20   21 ar
    42   20   24 1
    43   21   22 ar
    44   21   23 1
    45   22   51 1
    46   25   30 ar
    47   25   26 ar
    48   26   27 ar
    49   26   32 1
    50   27   28 ar
    51   27   52 1
    52   28   29 ar
    53   28   53 1
    54   29   30 ar
    55   29   54 1
    56   30   31 1
@<TRIPOS>MOLECULE
ZINC02282476
   56    58     0     0     0
SMALL
USER_CHARGES
N-(2-ethylphenyl)-4-[5-[(4-ethylphenyl)methylene]-4-oxo-2-thioxo-thiazolidin-3-yl]-butanamide
@<TRIPOS>ATOM
      1 C1          8.6015    3.0938   -7.6543 C.3       1 <0>        -0.1473
      2 C2          7.3138    3.5526   -6.9671 C.3       1 <0>        -0.0919
      3 C3          7.5785    3.7733   -5.5001 C.ar      1 <0>        -0.0506
      4 C4          7.9875    5.0182   -5.0541 C.ar      1 <0>        -0.1293
      5 C5          8.2322    5.2282   -3.7137 C.ar      1 <0>        -0.0749
      6 C6          8.0655    4.1788   -2.8032 C.ar      1 <0>        -0.1111
      7 C7          7.6564    2.9221   -3.2629 C.ar      1 <0>        -0.0410
      8 C8          7.4108    2.7301   -4.6059 C.ar      1 <0>        -0.1255
      9 C9          8.3246    4.3937   -1.3722 C.2       1 <0>         0.1022
     10 C10         7.4931    3.8578   -0.4446 C.2       1 <0>        -0.2508
     11 C11         6.1939    3.1756   -0.6252 C.2       1 <0>         0.5384
     12 O1          5.7030    3.0158   -1.7271 O.2       1 <0>        -0.4433
     13 N1          5.5910    2.7513    0.4726 N.am      1 <0>        -0.5205
     14 C12         6.1412    2.9256    1.6913 C.2       1 <0>         0.2801
     15 S1          5.5241    2.4462    3.2145 S.2       1 <0>        -0.3294
     16 S2          7.6690    3.7772    1.3326 S.3       1 <0>         0.0703
     17 C13         4.2983    2.0708    0.3618 C.3       1 <0>         0.0836
     18 C14         3.1706    3.1013    0.4473 C.3       1 <0>        -0.1174
     19 C15         1.8206    2.3907    0.3315 C.3       1 <0>        -0.1349
     20 C16         0.7098    3.4056    0.4158 C.2       1 <0>         0.5139
     21 O2          0.9721    4.5816    0.5547 O.2       1 <0>        -0.5120
     22 N2         -0.5751    3.0065    0.3367 N.am      1 <0>        -0.6686
     23 C17        -1.6078    3.9286    0.5395 C.ar      1 <0>         0.1495
     24 C18        -1.3560    5.1196    1.2082 C.ar      1 <0>        -0.1370
     25 C19        -2.3772    6.0278    1.4064 C.ar      1 <0>        -0.1026
     26 C20        -3.6496    5.7526    0.9394 C.ar      1 <0>        -0.1368
     27 C21        -3.9036    4.5679    0.2733 C.ar      1 <0>        -0.0971
     28 C22        -2.8852    3.6575    0.0677 C.ar      1 <0>        -0.1170
     29 C23        -3.1616    2.3690   -0.6635 C.3       1 <0>        -0.0860
     30 C24        -3.4599    1.2618    0.3494 C.3       1 <0>        -0.1504
     31 H1          9.3694    3.8580   -7.5346 H         1 <0>         0.0571
     32 H2          8.9424    2.1623   -7.2025 H         1 <0>         0.0565
     33 H3          8.4101    2.9342   -8.7154 H         1 <0>         0.0608
     34 H4          6.5459    2.7884   -7.0869 H         1 <0>         0.0746
     35 H5          6.9730    4.4842   -7.4190 H         1 <0>         0.0752
     36 H6          8.1157    5.8271   -5.7581 H         1 <0>         0.1282
     37 H7          8.5512    6.2001   -3.3672 H         1 <0>         0.1301
     38 H8          7.5294    2.1059   -2.5671 H         1 <0>         0.1194
     39 H9          7.0911    1.7618   -4.9619 H         1 <0>         0.1255
     40 H10         9.1772    4.9785   -1.0597 H         1 <0>         0.1602
     41 H11         4.1955    1.3514    1.1742 H         1 <0>         0.1151
     42 H12         4.2427    1.5499   -0.5941 H         1 <0>         0.1065
     43 H13         3.2734    3.8207   -0.3651 H         1 <0>         0.0787
     44 H14         3.2262    3.6222    1.4031 H         1 <0>         0.0850
     45 H15         1.7178    1.6713    1.1439 H         1 <0>         0.1073
     46 H16         1.7650    1.8697   -0.6243 H         1 <0>         0.1021
     47 H17        -0.7840    2.0810    0.1352 H         1 <0>         0.4113
     48 H18        -0.3626    5.3351    1.5732 H         1 <0>         0.1524
     49 H19        -2.1821    6.9541    1.9263 H         1 <0>         0.1247
     50 H20        -4.4465    6.4648    1.0950 H         1 <0>         0.1227
     51 H21        -4.8983    4.3558   -0.0898 H         1 <0>         0.1250
     52 H22        -4.0210    2.5014   -1.3207 H         1 <0>         0.0780
     53 H23        -2.2896    2.0936   -1.2566 H         1 <0>         0.0669
     54 H24        -3.6598    0.3298   -0.1794 H         1 <0>         0.0615
     55 H25        -2.6005    1.1294    1.0067 H         1 <0>         0.0521
     56 H26        -4.3319    1.5372    0.9425 H         1 <0>         0.0605
@<TRIPOS>BOND
     1    1    2 1
     2    1   31 1
     3    1   32 1
     4    1   33 1
     5    2    3 1
     6    2   34 1
     7    2   35 1
     8    3    8 ar
     9    3    4 ar
    10    4    5 ar
    11    4   36 1
    12    5    6 ar
    13    5   37 1
    14    6    7 ar
    15    6    9 1
    16    7    8 ar
    17    7   38 1
    18    8   39 1
    19    9   10 2
    20    9   40 1
    21   10   16 1
    22   10   11 1
    23   11   12 2
    24   11   13 am
    25   13   14 1
    26   13   17 1
    27   14   15 2
    28   14   16 1
    29   17   18 1
    30   17   41 1
    31   17   42 1
    32   18   19 1
    33   18   43 1
    34   18   44 1
    35   19   20 1
    36   19   45 1
    37   19   46 1
    38   20   21 2
    39   20   22 am
    40   22   23 1
    41   22   47 1
    42   23   28 ar
    43   23   24 ar
    44   24   25 ar
    45   24   48 1
    46   25   26 ar
    47   25   49 1
    48   26   27 ar
    49   26   50 1
    50   27   28 ar
    51   27   51 1
    52   28   29 1
    53   29   30 1
    54   29   52 1
    55   29   53 1
    56   30   54 1
    57   30   55 1
    58   30   56 1
@<TRIPOS>MOLECULE
ZINC06748672
   54    57     0     0     0
SMALL
USER_CHARGES
N-(3-propylsulfanylpropyl)-2-(p-tolyl)imidazo[2,1-b][1,3]benzothiazole-6-carboxamide
@<TRIPOS>ATOM
      1 C1          4.1131    8.1362    0.0065 C.3       1 <0>        -0.1490
      2 C2          4.2796    6.6153   -0.0033 C.3       1 <0>        -0.1088
      3 C3          2.9012    5.9513    0.0063 C.3       1 <0>        -0.0834
      4 S1          3.0987    4.1481   -0.0053 S.3       1 <0>        -0.2654
      5 C4          1.3968    3.5202    0.0076 C.3       1 <0>        -0.0835
      6 C5          1.4176    1.9904   -0.0008 C.3       1 <0>        -0.1162
      7 C6         -0.0178    1.4608    0.0101 C.3       1 <0>         0.1238
      8 N1          0.0021   -0.0041    0.0020 N.am      1 <0>        -0.7240
      9 C7         -1.1558   -0.6938    0.0094 C.2       1 <0>         0.5650
     10 O1         -2.2168   -0.1003    0.0227 O.2       1 <0>        -0.5250
     11 C8         -1.1358   -2.1704    0.0012 C.ar      1 <0>        -0.1200
     12 C9          0.0781   -2.8652   -0.0199 C.ar      1 <0>        -0.0598
     13 C10         0.1093   -4.2351   -0.0212 C.ar      1 <0>        -0.1003
     14 C11        -1.0802   -4.9870   -0.0143 C.ar      1 <0>         0.1254
     15 C12        -2.2834   -4.2690    0.0010 C.ar      1 <0>        -0.1391
     16 C13        -2.3300   -2.8977    0.0087 C.ar      1 <0>         0.0145
     17 S2         -3.5210   -5.5435    0.0060 S.3       1 <0>         0.1744
     18 C14        -2.4253   -6.9436   -0.0119 C.2       1 <0>         0.1938
     19 N2         -1.1809   -6.3814   -0.0208 N.pl3     1 <0>        -0.4380
     20 C15        -0.2954   -7.4554   -0.0351 C.2       1 <0>        -0.0213
     21 C16        -1.0332   -8.5905   -0.0340 C.2       1 <0>         0.0818
     22 N3         -2.3379   -8.2421   -0.0197 N.2       1 <0>        -0.4228
     23 C17        -0.5013   -9.9752   -0.0465 C.ar      1 <0>        -0.0185
     24 C18         0.8747  -10.1958   -0.0672 C.ar      1 <0>        -0.1005
     25 C19         1.3640  -11.4862   -0.0724 C.ar      1 <0>        -0.1197
     26 C20         0.4914  -12.5596   -0.0693 C.ar      1 <0>        -0.0788
     27 C21        -0.8753  -12.3465   -0.0550 C.ar      1 <0>        -0.1203
     28 C22        -1.3758  -11.0604   -0.0434 C.ar      1 <0>        -0.0834
     29 C23         1.0317  -13.9663   -0.0819 C.3       1 <0>        -0.1180
     30 H1          3.5543    8.4462   -0.8766 H         1 <0>         0.0567
     31 H2          3.5713    8.4366    0.9033 H         1 <0>         0.0567
     32 H3          5.0951    8.6092   -0.0004 H         1 <0>         0.0623
     33 H4          4.8384    6.3053    0.8798 H         1 <0>         0.0721
     34 H5          4.8214    6.3149   -0.9001 H         1 <0>         0.0721
     35 H6          2.3424    6.2613   -0.8767 H         1 <0>         0.0815
     36 H7          2.3594    6.2517    0.9031 H         1 <0>         0.0815
     37 H8          0.8697    3.8813   -0.8754 H         1 <0>         0.0857
     38 H9          0.8867    3.8717    0.9044 H         1 <0>         0.0857
     39 H10         1.9448    1.6293    0.8823 H         1 <0>         0.0816
     40 H11         1.9278    1.6388   -0.8976 H         1 <0>         0.0816
     41 H12        -0.5450    1.8219   -0.8730 H         1 <0>         0.0751
     42 H13        -0.5280    1.8123    0.9069 H         1 <0>         0.0751
     43 H14         0.8486   -0.4776   -0.0086 H         1 <0>         0.4020
     44 H15         1.0061   -2.3128   -0.0303 H         1 <0>         0.1429
     45 H16         1.0611   -4.7454   -0.0330 H         1 <0>         0.1408
     46 H17        -3.2803   -2.3848    0.0209 H         1 <0>         0.1604
     47 H18         0.7828   -7.3943   -0.0447 H         1 <0>         0.1868
     48 H19         1.5568   -9.3585   -0.0741 H         1 <0>         0.1229
     49 H20         2.4301  -11.6584   -0.0832 H         1 <0>         0.1264
     50 H21        -1.5520  -13.1882   -0.0526 H         1 <0>         0.1265
     51 H22        -2.4430  -10.8952   -0.0323 H         1 <0>         0.1325
     52 H23         1.1522  -14.3000   -1.1125 H         1 <0>         0.0725
     53 H24         1.9977  -13.9890    0.4226 H         1 <0>         0.0675
     54 H25         0.3362  -14.6273    0.4351 H         1 <0>         0.0680
@<TRIPOS>BOND
     1    1    2 1
     2    1   30 1
     3    1   31 1
     4    1   32 1
     5    2    3 1
     6    2   33 1
     7    2   34 1
     8    3    4 1
     9    3   35 1
    10    3   36 1
    11    4    5 1
    12    5    6 1
    13    5   37 1
    14    5   38 1
    15    6    7 1
    16    6   39 1
    17    6   40 1
    18    7    8 1
    19    7   41 1
    20    7   42 1
    21    8    9 am
    22    8   43 1
    23    9   10 2
    24    9   11 1
    25   11   16 ar
    26   11   12 ar
    27   12   13 ar
    28   12   44 1
    29   13   14 ar
    30   13   45 1
    31   14   19 1
    32   14   15 ar
    33   15   16 ar
    34   15   17 1
    35   16   46 1
    36   17   18 1
    37   18   22 2
    38   18   19 1
    39   19   20 1
    40   20   21 2
    41   20   47 1
    42   21   22 1
    43   21   23 1
    44   23   28 ar
    45   23   24 ar
    46   24   25 ar
    47   24   48 1
    48   25   26 ar
    49   25   49 1
    50   26   27 ar
    51   26   29 1
    52   27   28 ar
    53   27   50 1
    54   28   51 1
    55   29   52 1
    56   29   53 1
    57   29   54 1
@<TRIPOS>MOLECULE
ZINC23234802
   51    54     0     0     0
SMALL
USER_CHARGES
3-[6-(4-chlorophenyl)imidazo[2,1-b]thiazol-3-yl]-N-(3-phenylpropyl)propanamide
@<TRIPOS>ATOM
      1 C1         -0.6586   13.4463    8.1226 C.ar      1 <0>        -0.1237
      2 C2          0.3950   12.7432    7.5691 C.ar      1 <0>        -0.1178
      3 C3          0.3104   12.2813    6.2689 C.ar      1 <0>        -0.1176
      4 C4         -0.8275   12.5229    5.5222 C.ar      1 <0>        -0.0836
      5 C5         -1.8788   13.2309    6.0739 C.ar      1 <0>        -0.1176
      6 C6         -1.7964   13.6883    7.3758 C.ar      1 <0>        -0.1179
      7 C7         -0.9195   12.0197    4.1047 C.3       1 <0>        -0.0795
      8 C8         -1.5249   10.6146    4.1006 C.3       1 <0>        -0.1245
      9 C9         -1.6183   10.1037    2.6614 C.3       1 <0>         0.1194
     10 N1         -2.1979    8.7582    2.6575 N.am      1 <0>        -0.7414
     11 C10        -2.3769    8.1050    1.4923 C.2       1 <0>         0.5144
     12 O1         -2.0580    8.6309    0.4470 O.2       1 <0>        -0.5416
     13 C11        -2.9731    6.7210    1.4882 C.3       1 <0>        -0.1379
     14 C12        -3.0665    6.2101    0.0491 C.3       1 <0>        -0.0530
     15 C13        -3.6628    4.8261    0.0450 C.2       1 <0>         0.0629
     16 C14        -4.9868    4.6803    0.0512 C.2       1 <0>        -0.1747
     17 S1         -5.1627    2.9030    0.0427 S.3       1 <0>         0.1348
     18 C15        -3.4324    2.4949    0.0321 C.2       1 <0>         0.1821
     19 N2         -2.8315    3.7270    0.0354 N.pl3     1 <0>        -0.4271
     20 C16        -1.4665    3.4621    0.0332 C.2       1 <0>        -0.0211
     21 C17        -1.3102    2.1162    0.0197 C.2       1 <0>         0.0776
     22 N3         -2.5358    1.5522    0.0229 N.2       1 <0>        -0.4311
     23 C18        -0.0168    1.3894    0.0097 C.ar      1 <0>        -0.0028
     24 C19         1.1832    2.0980    0.0020 C.ar      1 <0>        -0.0943
     25 C20         2.3836    1.4174   -0.0135 C.ar      1 <0>        -0.1077
     26 C21         2.3970    0.0331   -0.0206 C.ar      1 <0>        -0.0314
     27 C22         1.2076   -0.6753   -0.0131 C.ar      1 <0>        -0.1085
     28 C23         0.0021   -0.0041    0.0020 C.ar      1 <0>        -0.0770
     29 Cl1         3.9103   -0.8172   -0.0397 Cl        1 <0>        -0.0672
     30 H1         -0.5927   13.8069    9.1385 H         1 <0>         0.1216
     31 H2          1.2840   12.5545    8.1524 H         1 <0>         0.1221
     32 H3          1.1336   11.7320    5.8364 H         1 <0>         0.1210
     33 H4         -2.7661   13.4235    5.4890 H         1 <0>         0.1211
     34 H5         -2.6194   14.2380    7.8081 H         1 <0>         0.1221
     35 H6         -1.5575   12.6956    3.5164 H         1 <0>         0.0770
     36 H7          0.0866   11.9868    3.6613 H         1 <0>         0.0769
     37 H8         -0.8869    9.9388    4.6889 H         1 <0>         0.0720
     38 H9         -2.5310   10.6475    4.5440 H         1 <0>         0.0723
     39 H10        -2.2564   10.7795    2.0731 H         1 <0>         0.0680
     40 H11        -0.6122   10.0708    2.2179 H         1 <0>         0.0674
     41 H12        -2.4870    8.2811    3.6056 H         1 <0>         0.4229
     42 H13        -2.3350    6.0452    2.0765 H         1 <0>         0.0949
     43 H14        -3.9792    6.7538    1.9316 H         1 <0>         0.1029
     44 H15        -3.7045    6.8860   -0.5392 H         1 <0>         0.1057
     45 H16        -2.0604    6.1772   -0.3943 H         1 <0>         0.0871
     46 H17        -5.7547    5.4397    0.0589 H         1 <0>         0.2179
     47 H18        -0.6744    4.1962    0.0385 H         1 <0>         0.1840
     48 H19         1.1738    3.1780    0.0076 H         1 <0>         0.1330
     49 H20         3.3141    1.9656   -0.0195 H         1 <0>         0.1380
     50 H21         1.2233   -1.7552   -0.0194 H         1 <0>         0.1380
     51 H22        -0.9252   -0.5576    0.0075 H         1 <0>         0.1423
@<TRIPOS>BOND
     1    1    6 ar
     2    1    2 ar
     3    1   30 1
     4    2    3 ar
     5    2   31 1
     6    3    4 ar
     7    3   32 1
     8    4    5 ar
     9    4    7 1
    10    5    6 ar
    11    5   33 1
    12    6   34 1
    13    7    8 1
    14    7   35 1
    15    7   36 1
    16    8    9 1
    17    8   37 1
    18    8   38 1
    19    9   10 1
    20    9   39 1
    21    9   40 1
    22   10   11 am
    23   10   41 1
    24   11   12 2
    25   11   13 1
    26   13   14 1
    27   13   42 1
    28   13   43 1
    29   14   15 1
    30   14   44 1
    31   14   45 1
    32   15   19 1
    33   15   16 2
    34   16   17 1
    35   16   46 1
    36   17   18 1
    37   18   22 2
    38   18   19 1
    39   19   20 1
    40   20   21 2
    41   20   47 1
    42   21   22 1
    43   21   23 1
    44   23   28 ar
    45   23   24 ar
    46   24   25 ar
    47   24   48 1
    48   25   26 ar
    49   25   49 1
    50   26   27 ar
    51   26   29 1
    52   27   28 ar
    53   27   50 1
    54   28   51 1
@<TRIPOS>MOLECULE
ZINC36801834
   51    53     0     0     0
SMALL
USER_CHARGES

@<TRIPOS>ATOM
      1 C1         -0.5327    3.1116    0.2592 C.3       1 <0>        -0.1560
      2 C2         -1.0923    1.7553    0.6930 C.3       1 <0>        -0.1171
      3 C3         -0.6208    0.6739   -0.2813 C.3       1 <0>        -0.0507
      4 H1         -0.8989    0.9539   -1.2973 H         1 <0>         0.0693
      5 C4          0.8999    0.5324   -0.1894 C.3       1 <0>        -0.1456
      6 C5         -1.2698   -0.6392    0.0733 C.ar      1 <0>        -0.1000
      7 C6         -0.9824   -1.2492    1.2789 C.ar      1 <0>        -0.0966
      8 C7         -1.5774   -2.4539    1.6050 C.ar      1 <0>        -0.1281
      9 C8         -2.4621   -3.0519    0.7261 C.ar      1 <0>        -0.1044
     10 C9         -2.7539   -2.4470   -0.4805 C.ar      1 <0>        -0.1251
     11 C10        -2.1616   -1.2344   -0.8090 C.ar      1 <0>         0.1401
     12 N1         -2.4592   -0.6162   -2.0285 N.am      1 <0>        -0.6570
     13 C11        -2.8158   -1.3622   -3.0928 C.2       1 <0>         0.5391
     14 O1         -2.9706   -2.5589   -2.9701 O.2       1 <0>        -0.4966
     15 C12        -3.0221   -0.7095   -4.4354 C.3       1 <0>        -0.1308
     16 H2         -3.4496    0.2832   -4.2949 H         1 <0>         0.1287
     17 C13        -1.6776   -0.5885   -5.1556 C.3       1 <0>        -0.1460
     18 S1         -4.1528   -1.7195   -5.4314 S.3       1 <0>         0.1657
     19 C14        -4.4065   -0.7632   -6.8894 C.2       1 <0>         0.0536
     20 N2         -3.9039    0.4028   -7.2078 N.2       1 <0>        -0.2694
     21 N3         -4.2245    0.9970   -8.4068 N.pl3     1 <0>        -0.3068
     22 C15        -5.0696    0.3498   -9.2480 C.2       1 <0>         0.2369
     23 S2         -5.6481    0.8263  -10.7873 S.2       1 <0>        -0.3696
     24 S3         -5.4094   -1.1374   -8.3186 S.3       1 <0>         0.1070
     25 C16        -3.6903    2.2430   -8.7511 C.ar      1 <0>         0.1122
     26 C17        -4.5191    3.2444   -9.2415 C.ar      1 <0>        -0.0808
     27 C18        -3.9885    4.4736   -9.5800 C.ar      1 <0>        -0.1038
     28 C19        -2.6337    4.7082   -9.4317 C.ar      1 <0>        -0.0983
     29 C20        -1.8058    3.7136   -8.9438 C.ar      1 <0>        -0.1115
     30 C21        -2.3307    2.4840   -8.5980 C.ar      1 <0>        -0.0905
     31 H3          0.5566    3.0721    0.2595 H         1 <0>         0.0588
     32 H4         -0.8874    3.3469   -0.7443 H         1 <0>         0.0528
     33 H5         -0.8686    3.8820    0.9533 H         1 <0>         0.0567
     34 H6         -0.7375    1.5200    1.6964 H         1 <0>         0.0676
     35 H7         -2.1816    1.7947    0.6926 H         1 <0>         0.0626
     36 H8          1.3692    1.4822   -0.4458 H         1 <0>         0.0626
     37 H9          1.1780    0.2524    0.8267 H         1 <0>         0.0602
     38 H10         1.2357   -0.2380   -0.8835 H         1 <0>         0.0556
     39 H11        -0.2920   -0.7848    1.9674 H         1 <0>         0.1264
     40 H12        -1.3505   -2.9291    2.5479 H         1 <0>         0.1243
     41 H13        -2.9250   -3.9931    0.9835 H         1 <0>         0.1268
     42 H14        -3.4447   -2.9146   -1.1666 H         1 <0>         0.1494
     43 H15        -2.4090    0.3492   -2.1079 H         1 <0>         0.4134
     44 H16        -1.2500   -1.5812   -5.2961 H         1 <0>         0.0816
     45 H17        -1.8268   -0.1164   -6.1267 H         1 <0>         0.0816
     46 H18        -0.9982    0.0184   -4.5571 H         1 <0>         0.0796
     47 H19        -5.5771    3.0616   -9.3582 H         1 <0>         0.1370
     48 H20        -4.6323    5.2524   -9.9613 H         1 <0>         0.1378
     49 H21        -2.2212    5.6702   -9.6979 H         1 <0>         0.1335
     50 H22        -0.7482    3.9000   -8.8296 H         1 <0>         0.1350
     51 H23        -1.6843    1.7091   -8.2132 H         1 <0>         0.1285
@<TRIPOS>BOND
     1    1    2 1
     2    1   31 1
     3    1   32 1
     4    1   33 1
     5    2    3 1
     6    2   34 1
     7    2   35 1
     8    3    4 1
     9    3    5 1
    10    3    6 1
    11    5   36 1
    12    5   37 1
    13    5   38 1
    14    6   11 ar
    15    6    7 ar
    16    7    8 ar
    17    7   39 1
    18    8    9 ar
    19    8   40 1
    20    9   10 ar
    21    9   41 1
    22   10   11 ar
    23   10   42 1
    24   11   12 1
    25   12   13 am
    26   12   43 1
    27   13   14 2
    28   13   15 1
    29   15   16 1
    30   15   17 1
    31   15   18 1
    32   17   44 1
    33   17   45 1
    34   17   46 1
    35   18   19 1
    36   19   24 1
    37   19   20 2
    38   20   21 1
    39   21   22 1
    40   21   25 1
    41   22   23 2
    42   22   24 1
    43   25   30 ar
    44   25   26 ar
    45   26   27 ar
    46   26   47 1
    47   27   28 ar
    48   27   48 1
    49   28   29 ar
    50   28   49 1
    51   29   30 ar
    52   29   50 1
    53   30   51 1
@<TRIPOS>MOLECULE
ZINC59100039
   51    54     0     0     0
SMALL
USER_CHARGES

@<TRIPOS>ATOM
      1 C1         -0.6768    1.0871    0.6139 C.ar      1 <0>        -0.0726
      2 C2          0.4215    1.8831    0.8823 C.ar      1 <0>        -0.1054
      3 C3          1.6848    1.3198    0.9542 C.ar      1 <0>         0.0428
      4 C4          1.8452   -0.0497    0.7558 C.ar      1 <0>         0.0219
      5 C5          0.7405   -0.8408    0.4871 C.ar      1 <0>        -0.0864
      6 C6         -0.5178   -0.2716    0.4170 C.ar      1 <0>        -0.1108
      7 C7         -1.7181   -1.1346    0.1247 C.3       1 <0>         0.1524
      8 N1         -1.9332   -1.1979   -1.3230 N.pl3     1 <0>        -0.5513
      9 C8         -1.2904   -2.2505   -2.1137 C.3       1 <0>         0.0910
     10 C9         -2.2105   -3.4710   -2.1818 C.3       1 <0>        -0.1065
     11 H1         -3.1856   -3.1737   -2.5678 H         1 <0>         0.0795
     12 C10        -1.5931   -4.5315   -3.1021 C.3       1 <0>        -0.1134
     13 C11        -2.6105   -5.6584   -3.2928 C.3       1 <0>        -0.0914
     14 C12        -3.1447   -6.1031   -1.9628 C.2       1 <0>        -0.1550
     15 C13        -3.0430   -5.4124   -0.8727 C.2       1 <0>        -0.1564
     16 C14        -2.3721   -4.0719   -0.7837 C.3       1 <0>        -0.0874
     17 C15        -2.7223   -0.2877   -1.9275 C.2       1 <0>         0.5562
     18 S1         -3.4734    0.9423   -1.0035 S.2       1 <0>        -0.6060
     19 N2         -2.9201   -0.3459   -3.2594 N.pl3     1 <0>        -0.6317
     20 C16        -3.8291    0.5259   -3.8709 C.ar      1 <0>         0.1304
     21 C17        -3.5114    1.1228   -5.0839 C.ar      1 <0>        -0.0912
     22 C18        -4.4093    1.9822   -5.6862 C.ar      1 <0>        -0.1348
     23 C19        -5.6258    2.2496   -5.0814 C.ar      1 <0>         0.1148
     24 C20        -5.9450    1.6558   -3.8709 C.ar      1 <0>        -0.0656
     25 C21        -5.0514    0.7902   -3.2682 C.ar      1 <0>        -0.0371
     26 Cl1        -7.4707    1.9932   -3.1145 Cl        1 <0>        -0.0388
     27 F1         -6.5023    3.0910   -5.6721 F         1 <0>        -0.1236
     28 O1          3.1699   -0.3557    0.8766 O.3       1 <0>        -0.3094
     29 C22         3.8674    0.8971    0.7455 C.3       1 <0>         0.2132
     30 O2          2.9092    1.8713    1.1993 O.3       1 <0>        -0.3080
     31 H2         -1.6617    1.5274    0.5623 H         1 <0>         0.1653
     32 H3          0.2943    2.9446    1.0357 H         1 <0>         0.1374
     33 H4          0.8619   -1.9028    0.3329 H         1 <0>         0.1311
     34 H5         -1.5460   -2.1393    0.5107 H         1 <0>         0.1017
     35 H6         -2.5985   -0.7070    0.6045 H         1 <0>         0.1281
     36 H7         -1.0999   -1.8825   -3.1219 H         1 <0>         0.0807
     37 H8         -0.3473   -2.5321   -1.6454 H         1 <0>         0.1016
     38 H9         -1.3554   -4.0851   -4.0677 H         1 <0>         0.0685
     39 H10        -0.6866   -4.9295   -2.6460 H         1 <0>         0.0714
     40 H11        -3.4336   -5.3012   -3.9116 H         1 <0>         0.0742
     41 H12        -2.1280   -6.5009   -3.7883 H         1 <0>         0.0758
     42 H13        -3.6455   -7.0586   -1.9120 H         1 <0>         0.1043
     43 H14        -3.4707   -5.8242    0.0294 H         1 <0>         0.1054
     44 H15        -1.3901   -4.1920   -0.3264 H         1 <0>         0.0767
     45 H16        -2.9748   -3.4022   -0.1701 H         1 <0>         0.0767
     46 H17        -2.4328   -0.9919   -3.7943 H         1 <0>         0.4091
     47 H18        -2.5625    0.9153   -5.5559 H         1 <0>         0.1404
     48 H19        -4.1621    2.4464   -6.6295 H         1 <0>         0.1511
     49 H20        -5.3020    0.3238   -2.3268 H         1 <0>         0.1638
     50 H21         4.7549    0.9094    1.3781 H         1 <0>         0.1331
     51 H22         4.1352    1.0793   -0.2953 H         1 <0>         0.0842
@<TRIPOS>BOND
     1    1    6 ar
     2    1    2 ar
     3    1   31 1
     4    2    3 ar
     5    2   32 1
     6    3   30 1
     7    3    4 ar
     8    4    5 ar
     9    4   28 1
    10    5    6 ar
    11    5   33 1
    12    6    7 1
    13    7    8 1
    14    7   34 1
    15    7   35 1
    16    8    9 1
    17    8   17 1
    18    9   10 1
    19    9   36 1
    20    9   37 1
    21   10   11 1
    22   10   16 1
    23   10   12 1
    24   12   13 1
    25   12   38 1
    26   12   39 1
    27   13   14 1
    28   13   40 1
    29   13   41 1
    30   14   15 2
    31   14   42 1
    32   15   16 1
    33   15   43 1
    34   16   44 1
    35   16   45 1
    36   17   18 2
    37   17   19 1
    38   19   20 1
    39   19   46 1
    40   20   25 ar
    41   20   21 ar
    42   21   22 ar
    43   21   47 1
    44   22   23 ar
    45   22   48 1
    46   23   24 ar
    47   23   27 1
    48   24   25 ar
    49   24   26 1
    50   25   49 1
    51   28   29 1
    52   29   30 1
    53   29   50 1
    54   29   51 1
@<TRIPOS>MOLECULE
ZINC09358240
   53    55     0     0     0
SMALL
USER_CHARGES
2-[(3-ethyl-8,9-dimethyl-2-oxo-7-thia-3,5-diazabicyclo[4.3.0]nona-4,8,10-trien-4-yl)sulfanyl]-N-[1-(4-fluorophenyl)ethyl]propanamide
@<TRIPOS>ATOM
      1 C1          1.1305   -4.5277   -1.4780 C.3       1 <0>        -0.1692
      2 C2          1.0304   -4.0391   -0.0316 C.3       1 <0>         0.0794
      3 N1          0.7039   -2.6110   -0.0200 N.am      1 <0>        -0.5086
      4 C3          1.6999   -1.7061   -0.0236 C.2       1 <0>         0.5603
      5 O1          2.8637   -2.0689   -0.0367 O.2       1 <0>        -0.5148
      6 C4          1.3754   -0.3130   -0.0128 C.2       1 <0>        -0.2502
      7 C5          2.2622    0.8378   -0.0150 C.2       1 <0>        -0.0557
      8 C6          1.7351    2.0710   -0.0034 C.2       1 <0>        -0.1661
      9 S1         -0.0220    1.7702    0.0118 S.3       1 <0>         0.1335
     10 C7          0.0021   -0.0041    0.0020 C.2       1 <0>         0.1170
     11 N2         -0.9320   -0.9472    0.0052 N.2       1 <0>        -0.4997
     12 C8         -0.6046   -2.2235   -0.0054 C.2       1 <0>         0.3619
     13 S2         -1.8733   -3.4463   -0.0013 S.3       1 <0>         0.0988
     14 C9         -3.3365   -2.3810    0.0184 C.3       1 <0>        -0.1178
     15 H1         -3.2909   -1.6856   -0.8197 H         1 <0>         0.1299
     16 C10        -3.3781   -1.5959    1.3309 C.3       1 <0>        -0.1468
     17 C11        -4.5767   -3.2289   -0.0993 C.2       1 <0>         0.5390
     18 O2         -4.5554   -4.3876    0.2582 O.2       1 <0>        -0.5187
     19 N3         -5.7097   -2.6996   -0.6020 N.am      1 <0>        -0.7159
     20 C12        -6.9154   -3.5238   -0.7164 C.3       1 <0>         0.1865
     21 H2         -6.9610   -4.2193    0.1217 H         1 <0>         0.1030
     22 C13        -6.8738   -4.3090   -2.0289 C.3       1 <0>        -0.1609
     23 C14        -8.1337   -2.6369   -0.7000 C.ar      1 <0>        -0.1070
     24 C15        -8.1189   -1.4306   -1.3752 C.ar      1 <0>        -0.0855
     25 C16        -9.2375   -0.6191   -1.3655 C.ar      1 <0>        -0.1481
     26 C17       -10.3691   -1.0091   -0.6696 C.ar      1 <0>         0.1028
     27 C18       -10.3808   -2.2149    0.0108 C.ar      1 <0>        -0.1479
     28 C19        -9.2632   -3.0276   -0.0052 C.ar      1 <0>        -0.0753
     29 F1        -11.4610   -0.2136   -0.6542 F         1 <0>        -0.1367
     30 C20         2.4559    3.3944   -0.0036 C.3       1 <0>        -0.0652
     31 C21         3.7571    0.6480   -0.0308 C.3       1 <0>        -0.1052
     32 H3          0.1771   -4.3689   -1.9819 H         1 <0>         0.0657
     33 H4          1.9122   -3.9721   -1.9959 H         1 <0>         0.0664
     34 H5          1.3734   -5.5903   -1.4866 H         1 <0>         0.0853
     35 H6          1.9838   -4.1980    0.4724 H         1 <0>         0.1113
     36 H7          0.2487   -4.5947    0.4864 H         1 <0>         0.1001
     37 H8         -2.4810   -0.9826    1.4160 H         1 <0>         0.0939
     38 H9         -4.2593   -0.9544    1.3427 H         1 <0>         0.0747
     39 H10        -3.4237   -2.2913    2.1690 H         1 <0>         0.0719
     40 H11        -5.7268   -1.7729   -0.8880 H         1 <0>         0.4035
     41 H12        -6.8282   -3.6136   -2.8670 H         1 <0>         0.0616
     42 H13        -5.9926   -4.9505   -2.0408 H         1 <0>         0.0684
     43 H14        -7.7708   -4.9223   -2.1141 H         1 <0>         0.0724
     44 H15        -7.2343   -1.1242   -1.9137 H         1 <0>         0.1312
     45 H16        -9.2271    0.3214   -1.8964 H         1 <0>         0.1389
     46 H17       -11.2628   -2.5200    0.5543 H         1 <0>         0.1398
     47 H18        -9.2720   -3.9682    0.5255 H         1 <0>         0.1373
     48 H19         1.7272    4.2050    0.0078 H         1 <0>         0.0746
     49 H20         3.0897    3.4631    0.8806 H         1 <0>         0.0827
     50 H21         3.0721    3.4724   -0.8993 H         1 <0>         0.0823
     51 H22         4.1074    0.6080   -1.0622 H         1 <0>         0.0717
     52 H23         4.2347    1.4823    0.4830 H         1 <0>         0.0670
     53 H24         4.0105   -0.2835    0.4753 H         1 <0>         0.0826
@<TRIPOS>BOND
     1    1    2 1
     2    1   32 1
     3    1   33 1
     4    1   34 1
     5    2    3 1
     6    2   35 1
     7    2   36 1
     8    3   12 1
     9    3    4 am
    10    4    5 2
    11    4    6 1
    12    6   10 2
    13    6    7 1
    14    7    8 2
    15    7   31 1
    16    8    9 1
    17    8   30 1
    18    9   10 1
    19   10   11 1
    20   11   12 2
    21   12   13 1
    22   13   14 1
    23   14   15 1
    24   14   16 1
    25   14   17 1
    26   16   37 1
    27   16   38 1
    28   16   39 1
    29   17   18 2
    30   17   19 am
    31   19   20 1
    32   19   40 1
    33   20   21 1
    34   20   22 1
    35   20   23 1
    36   22   41 1
    37   22   42 1
    38   22   43 1
    39   23   28 ar
    40   23   24 ar
    41   24   25 ar
    42   24   44 1
    43   25   26 ar
    44   25   45 1
    45   26   27 ar
    46   26   29 1
    47   27   28 ar
    48   27   46 1
    49   28   47 1
    50   30   48 1
    51   30   49 1
    52   30   50 1
    53   31   51 1
    54   31   52 1
    55   31   53 1
@<TRIPOS>MOLECULE
ZINC16821747
   50    51     0     0     0
SMALL
USER_CHARGES
(2S)-N-[4-chloro-3-(dimethylsulfamoyl)phenyl]-2-(3,4-dimethylphenyl)sulfanyl-propanamide
@<TRIPOS>ATOM
      1 C1          4.5412    1.5350   -0.4362 C.3       1 <0>        -0.1246
      2 C2          3.1285    2.0562   -0.4979 C.ar      1 <0>        -0.0567
      3 C3          2.4536    2.0789   -1.7052 C.ar      1 <0>        -0.1261
      4 C4          1.1595    2.5561   -1.7656 C.ar      1 <0>        -0.0721
      5 C5          0.5349    3.0141   -0.6115 C.ar      1 <0>        -0.1388
      6 C6          1.2160    2.9898    0.5995 C.ar      1 <0>        -0.0618
      7 C7          2.5103    2.5110    0.6523 C.ar      1 <0>        -0.0964
      8 C8          3.2496    2.4838    1.9652 C.3       1 <0>        -0.1191
      9 S1         -1.1140    3.6307   -0.6851 S.3       1 <0>        -0.0688
     10 C9         -2.1448    2.1432   -0.5619 C.3       1 <0>        -0.1099
     11 H1         -1.8542    1.4345   -1.3375 H         1 <0>         0.1123
     12 C10        -1.9518    1.5014    0.8135 C.3       1 <0>        -0.1420
     13 C11        -3.5930    2.5192   -0.7421 C.2       1 <0>         0.5368
     14 O1         -3.9471    3.6668   -0.5731 O.2       1 <0>        -0.4897
     15 N1         -4.4946    1.5801   -1.0910 N.am      1 <0>        -0.6692
     16 C12        -5.8547    1.9050   -1.1541 C.ar      1 <0>         0.1317
     17 C13        -6.8113    0.9699   -0.7808 C.ar      1 <0>        -0.0769
     18 C14        -8.1522    1.2946   -0.8390 C.ar      1 <0>        -0.1068
     19 C15        -8.5436    2.5469   -1.2797 C.ar      1 <0>         0.0386
     20 C16        -7.5928    3.4786   -1.6571 C.ar      1 <0>        -0.6553
     21 C17        -6.2500    3.1607   -1.5954 C.ar      1 <0>        -0.0128
     22 S2         -8.0953    5.0721   -2.2165 S.o2      1 <0>         2.6874
     23 O2         -6.9077    5.7820   -2.5402 O.2       1 <0>        -0.9428
     24 O3         -9.1379    4.8616   -3.1589 O.2       1 <0>        -0.9379
     25 N2         -8.7760    5.8525   -0.9242 N.pl3     1 <0>        -0.9979
     26 C18        -7.9232    6.5418    0.0473 C.3       1 <0>         0.0902
     27 C19       -10.2308    5.8535   -0.7524 C.3       1 <0>         0.0792
     28 Cl1       -10.2304    2.9496   -1.3585 Cl        1 <0>        -0.0369
     29 H2          5.2389    2.3557   -0.6032 H         1 <0>         0.0766
     30 H3          4.7241    1.0965    0.5448 H         1 <0>         0.0742
     31 H4          4.6823    0.7759   -1.2056 H         1 <0>         0.0692
     32 H5          2.9397    1.7232   -2.6016 H         1 <0>         0.1286
     33 H6          0.6331    2.5732   -2.7084 H         1 <0>         0.1306
     34 H7          0.7339    3.3452    1.4982 H         1 <0>         0.1324
     35 H8          3.7856    3.4233    2.0999 H         1 <0>         0.0738
     36 H9          2.5380    2.3513    2.7802 H         1 <0>         0.0677
     37 H10         3.9599    1.6570    1.9651 H         1 <0>         0.0726
     38 H11        -2.5125    0.5678    0.8608 H         1 <0>         0.0687
     39 H12        -0.8931    1.2980    0.9742 H         1 <0>         0.0751
     40 H13        -2.3125    2.1812    1.5855 H         1 <0>         0.0767
     41 H14        -4.2011    0.6792   -1.2984 H         1 <0>         0.4169
     42 H15        -6.5065   -0.0091   -0.4414 H         1 <0>         0.1464
     43 H16        -8.8963    0.5693   -0.5446 H         1 <0>         0.1502
     44 H17        -5.5083    3.8881   -1.8904 H         1 <0>         0.1689
     45 H18        -7.8404    7.5942   -0.2242 H         1 <0>         0.0657
     46 H19        -8.3623    6.4565    1.0413 H         1 <0>         0.0742
     47 H20        -6.9323    6.0877    0.0477 H         1 <0>         0.0746
     48 H21       -10.5268    4.9913   -0.1548 H         1 <0>         0.0586
     49 H22       -10.5362    6.7689   -0.2456 H         1 <0>         0.0796
     50 H23       -10.7120    5.8011   -1.7290 H         1 <0>         0.0849
@<TRIPOS>BOND
     1    1    2 1
     2    1   29 1
     3    1   30 1
     4    1   31 1
     5    2    7 ar
     6    2    3 ar
     7    3    4 ar
     8    3   32 1
     9    4    5 ar
    10    4   33 1
    11    5    6 ar
    12    5    9 1
    13    6    7 ar
    14    6   34 1
    15    7    8 1
    16    8   35 1
    17    8   36 1
    18    8   37 1
    19    9   10 1
    20   10   11 1
    21   10   12 1
    22   10   13 1
    23   12   38 1
    24   12   39 1
    25   12   40 1
    26   13   14 2
    27   13   15 am
    28   15   16 1
    29   15   41 1
    30   16   21 ar
    31   16   17 ar
    32   17   18 ar
    33   17   42 1
    34   18   19 ar
    35   18   43 1
    36   19   20 ar
    37   19   28 1
    38   20   21 ar
    39   20   22 1
    40   21   44 1
    41   22   23 2
    42   22   24 2
    43   22   25 1
    44   25   26 1
    45   25   27 1
    46   26   45 1
    47   26   46 1
    48   26   47 1
    49   27   48 1
    50   27   49 1
    51   27   50 1
@<TRIPOS>MOLECULE
ZINC24719362
   52    56     0     0     0
SMALL
USER_CHARGES
[(2R)-2-hydroxy-3-(4-phenylphenoxy)propyl]BLAHone
@<TRIPOS>ATOM
      1 C1         -0.1116    8.3760    0.0477 C.ar      1 <0>        -0.1222
      2 C2         -1.3015    7.6707    0.0552 C.ar      1 <0>        -0.1158
      3 C3         -1.2887    6.2906    0.0477 C.ar      1 <0>        -0.1159
      4 C4         -0.0740    5.6078    0.0324 C.ar      1 <0>        -0.0381
      5 C5          1.1217    6.3234    0.0302 C.ar      1 <0>        -0.1153
      6 C6          1.0970    7.7033    0.0325 C.ar      1 <0>        -0.1153
      7 C7         -0.0539    4.1243    0.0247 C.ar      1 <0>        -0.0847
      8 C8          1.1616    3.4426    0.0095 C.ar      1 <0>        -0.0685
      9 C9          1.1772    2.0636    0.0019 C.ar      1 <0>        -0.1467
     10 C10        -0.0163    1.3545    0.0095 C.ar      1 <0>         0.1339
     11 C11        -1.2287    2.0309    0.0189 C.ar      1 <0>        -0.2069
     12 C12        -1.2506    3.4097    0.0323 C.ar      1 <0>        -0.0679
     13 O1          0.0021   -0.0041    0.0020 O.3       1 <0>        -0.3018
     14 C13        -1.2622   -0.6701    0.0105 C.3       1 <0>         0.0681
     15 C14        -1.0412   -2.1840    0.0003 C.3       1 <0>         0.1045
     16 H1         -0.3461   -2.4909    0.7957 H         1 <0>         0.0710
     17 C15        -2.3882   -2.8970    0.1350 C.3       1 <0>         0.0567
     18 N1         -2.1675   -4.3411    0.2453 N.am      1 <0>        -0.5331
     19 C16        -2.0023   -4.8971    1.4730 C.2       1 <0>         0.3823
     20 N2         -1.8047   -6.1807    1.6146 N.2       1 <0>        -0.4832
     21 C17        -1.7587   -6.9846    0.5550 C.2       1 <0>         0.0933
     22 C18        -1.9170   -6.5017   -0.7505 C.2       1 <0>        -0.2306
     23 C19        -2.1380   -5.0913   -0.8726 C.2       1 <0>         0.5444
     24 O2         -2.2923   -4.5795   -1.9681 O.2       1 <0>        -0.5045
     25 C20        -1.8418   -7.5036   -1.8243 C.2       1 <0>        -0.0784
     26 C21        -1.6325   -8.7780   -1.4521 C.2       1 <0>        -0.1953
     27 S1         -1.5208   -8.7262    0.3218 S.3       1 <0>         0.1883
     28 C22        -1.5794   -9.7124   -2.6308 C.3       1 <0>        -0.0384
     29 C23        -2.2173   -8.9129   -3.7882 C.3       1 <0>        -0.1131
     30 C24        -1.9478   -7.4596   -3.3512 C.3       1 <0>        -0.0590
     31 O3         -0.4207   -2.5665   -1.2288 O.3       1 <0>        -0.5727
     32 H2         -0.1262    9.4558    0.0540 H         1 <0>         0.1227
     33 H3         -2.2423    8.2009    0.0674 H         1 <0>         0.1239
     34 H4         -2.2183    5.7409    0.0539 H         1 <0>         0.1238
     35 H5          2.0659    5.7992    0.0228 H         1 <0>         0.1249
     36 H6          2.0231    8.2590    0.0267 H         1 <0>         0.1243
     37 H7          2.0904    3.9936    0.0039 H         1 <0>         0.1335
     38 H8          2.1188    1.5348   -0.0103 H         1 <0>         0.1340
     39 H9         -2.1557    1.4766    0.0200 H         1 <0>         0.1298
     40 H10        -2.1940    3.9353    0.0438 H         1 <0>         0.1291
     41 H11        -1.8197   -0.3870    0.9155 H         1 <0>         0.0835
     42 H12        -1.8368   -0.3774   -0.8806 H         1 <0>         0.0783
     43 H13        -2.9060   -2.5354    1.0356 H         1 <0>         0.1121
     44 H14        -3.0046   -2.6869   -0.7516 H         1 <0>         0.1194
     45 H15        -2.0352   -4.2663    2.3490 H         1 <0>         0.2172
     46 H16        -0.5327   -9.9761   -2.8427 H         1 <0>         0.0891
     47 H17        -2.1482  -10.6254   -2.4009 H         1 <0>         0.0828
     48 H18        -1.7231   -9.1795   -4.7341 H         1 <0>         0.0875
     49 H19        -3.2886   -9.1539   -3.8536 H         1 <0>         0.0787
     50 H20        -2.7731   -6.7932   -3.6424 H         1 <0>         0.0813
     51 H21        -1.0050   -7.0817   -3.7735 H         1 <0>         0.0849
     52 H22        -0.1822   -3.6234   -1.4189 H         1 <0>         0.4042
@<TRIPOS>BOND
     1    1    6 ar
     2    1    2 ar
     3    1   32 1
     4    2    3 ar
     5    2   33 1
     6    3    4 ar
     7    3   34 1
     8    4    5 ar
     9    4    7 1
    10    5    6 ar
    11    5   35 1
    12    6   36 1
    13    7   12 ar
    14    7    8 ar
    15    8    9 ar
    16    8   37 1
    17    9   10 ar
    18    9   38 1
    19   10   11 ar
    20   10   13 1
    21   11   12 ar
    22   11   39 1
    23   12   40 1
    24   13   14 1
    25   14   15 1
    26   14   41 1
    27   14   42 1
    28   15   16 1
    29   15   17 1
    30   15   31 1
    31   17   18 1
    32   17   43 1
    33   17   44 1
    34   18   23 am
    35   18   19 1
    36   19   20 2
    37   19   45 1
    38   20   21 1
    39   21   27 1
    40   21   22 2
    41   22   23 1
    42   22   25 1
    43   23   24 2
    44   25   30 1
    45   25   26 2
    46   26   27 1
    47   26   28 1
    48   28   29 1
    49   28   46 1
    50   28   47 1
    51   29   30 1
    52   29   48 1
    53   29   49 1
    54   30   50 1
    55   30   51 1
    56   31   52 1
@<TRIPOS>MOLECULE
ZINC36640632
   48    51     0     0     0
SMALL
USER_CHARGES

@<TRIPOS>ATOM
      1 C1         -0.0173    1.3774    0.0111 C.ar      1 <0>        -0.0944
      2 C2          0.5234    0.9589   -1.1908 C.ar      1 <0>        -0.1083
      3 C3          1.7295    0.2863   -1.2102 C.ar      1 <0>        -0.0862
      4 C4          2.3995    0.0308   -0.0212 C.ar      1 <0>         0.0839
      5 C5          1.8542    0.4526    1.1840 C.ar      1 <0>        -0.0860
      6 C6          0.6475    1.1244    1.1969 C.ar      1 <0>        -0.1083
      7 N1          3.6230   -0.6517   -0.0375 N.am      1 <0>        -0.4666
      8 C7          3.6313   -1.9944    0.0519 C.2       1 <0>         0.5601
      9 O1          2.5855   -2.6139    0.1457 O.2       1 <0>        -0.5018
     10 C8          4.8841   -2.6850    0.0349 C.2       1 <0>        -0.2475
     11 C9          5.1265   -4.1266    0.1202 C.2       1 <0>        -0.0456
     12 C10         6.4110   -4.5344    0.0821 C.2       1 <0>        -0.1694
     13 S1          7.3625   -3.0464   -0.0679 S.3       1 <0>         0.1461
     14 C11         6.0277   -1.8764   -0.0777 C.2       1 <0>         0.1139
     15 N2          5.9526   -0.5534   -0.1614 N.2       1 <0>        -0.5006
     16 C12         4.7856    0.0584   -0.1495 C.2       1 <0>         0.3633
     17 S2          4.7233    1.8151   -0.2713 S.3       1 <0>         0.1161
     18 C13         6.4644    2.3082   -0.3984 C.3       1 <0>        -0.1595
     19 C14         6.5548    3.8083   -0.5100 C.2       1 <0>         0.5453
     20 O2          5.5442    4.4788   -0.5044 O.2       1 <0>        -0.5100
     21 N3          7.7587    4.4048   -0.6161 N.am      1 <0>        -0.7229
     22 C15         7.8465    5.8632   -0.7246 C.3       1 <0>         0.0781
     23 C16         9.3150    6.2790   -0.8319 C.3       1 <0>         0.4490
     24 F1          9.8843    5.6918   -1.9669 F         1 <0>        -0.1765
     25 F2          9.3989    7.6717   -0.9355 F         1 <0>        -0.1693
     26 F3         10.0046    5.8539    0.3088 F         1 <0>        -0.1766
     27 C17         6.9191   -5.9424    0.1523 C.3       1 <0>        -0.0365
     28 C18         5.7801   -6.8440    0.6496 C.3       1 <0>        -0.1152
     29 C19         4.5136   -6.5197   -0.1480 C.3       1 <0>        -0.1229
     30 C20         3.9906   -5.1380    0.2475 C.3       1 <0>        -0.0599
     31 H1         -0.9586    1.9068    0.0234 H         1 <0>         0.1334
     32 H2          0.0018    1.1580   -2.1154 H         1 <0>         0.1356
     33 H3          2.1510   -0.0409   -2.1492 H         1 <0>         0.1277
     34 H4          2.3728    0.2551    2.1106 H         1 <0>         0.1278
     35 H5          0.2227    1.4525    2.1341 H         1 <0>         0.1356
     36 H6          7.0016    1.9769    0.4903 H         1 <0>         0.1366
     37 H7          6.9080    1.8506   -1.2827 H         1 <0>         0.1365
     38 H8          8.5669    3.8686   -0.6206 H         1 <0>         0.4135
     39 H9          7.3093    6.1944   -1.6133 H         1 <0>         0.1208
     40 H10         7.4030    6.3207    0.1597 H         1 <0>         0.1208
     41 H11         7.2386   -6.2671   -0.8379 H         1 <0>         0.0862
     42 H12         7.7587   -5.9956    0.8453 H         1 <0>         0.0844
     43 H13         6.0492   -7.8895    0.4994 H         1 <0>         0.0766
     44 H14         5.6027   -6.6582    1.7089 H         1 <0>         0.0694
     45 H15         4.7442   -6.5289   -1.2133 H         1 <0>         0.0662
     46 H16         3.7509   -7.2694    0.0627 H         1 <0>         0.0720
     47 H17         3.6363   -5.1617    1.2780 H         1 <0>         0.0792
     48 H18         3.1731   -4.8544   -0.4153 H         1 <0>         0.0858
@<TRIPOS>BOND
     1    1    6 ar
     2    1    2 ar
     3    1   31 1
     4    2    3 ar
     5    2   32 1
     6    3    4 ar
     7    3   33 1
     8    4    5 ar
     9    4    7 1
    10    5    6 ar
    11    5   34 1
    12    6   35 1
    13    7   16 1
    14    7    8 am
    15    8    9 2
    16    8   10 1
    17   10   14 2
    18   10   11 1
    19   11   30 1
    20   11   12 2
    21   12   13 1
    22   12   27 1
    23   13   14 1
    24   14   15 1
    25   15   16 2
    26   16   17 1
    27   17   18 1
    28   18   19 1
    29   18   36 1
    30   18   37 1
    31   19   20 2
    32   19   21 am
    33   21   22 1
    34   21   38 1
    35   22   23 1
    36   22   39 1
    37   22   40 1
    38   23   24 1
    39   23   25 1
    40   23   26 1
    41   27   28 1
    42   27   41 1
    43   27   42 1
    44   28   29 1
    45   28   43 1
    46   28   44 1
    47   29   30 1
    48   29   45 1
    49   29   46 1
    50   30   47 1
    51   30   48 1
@<TRIPOS>MOLECULE
ZINC13942886
   45    48     0     0     0
SMALL
USER_CHARGES

@<TRIPOS>ATOM
      1 C1          0.0186    2.3131    0.7762 C.ar      1 <0>        -0.1146
      2 C2          1.2963    2.7622    0.4995 C.ar      1 <0>        -0.1180
      3 C3          2.3378    1.8598    0.3909 C.ar      1 <0>        -0.1127
      4 C4          2.1017    0.5083    0.5594 C.ar      1 <0>        -0.0890
      5 C5          0.8241    0.0591    0.8370 C.ar      1 <0>        -0.0927
      6 C6         -0.2176    0.9614    0.9442 C.ar      1 <0>        -0.1202
      7 C7          3.2369   -0.4756    0.4399 C.3       1 <0>         0.0995
      8 N1          3.8570   -0.6701    1.7574 N.3       1 <0>        -0.6719
      9 C8          4.9703   -1.6253    1.6794 C.3       1 <0>         0.2102
     10 H1          5.4826   -1.5090    0.7244 H         1 <0>         0.0888
     11 C9          4.4362   -3.0298    1.7952 C.ar      1 <0>        -0.0780
     12 C10         3.4999   -3.3354    2.7651 C.ar      1 <0>        -0.0661
     13 C11         3.0100   -4.6237    2.8714 C.ar      1 <0>        -0.1236
     14 C12         3.4562   -5.6062    2.0074 C.ar      1 <0>        -0.1074
     15 C13         4.3919   -5.3004    1.0369 C.ar      1 <0>        -0.1215
     16 C14         4.8785   -4.0111    0.9279 C.ar      1 <0>        -0.1017
     17 C15         5.9382   -1.3616    2.8040 C.2       1 <0>         0.2550
     18 N2          6.4534   -2.2541    3.6086 N.2       1 <0>        -0.2979
     19 N3          7.2416   -1.6980    4.4564 N.2       1 <0>        -0.0272
     20 N4          7.2851   -0.4251    4.2556 N.2       1 <0>        -0.0664
     21 N5          6.4390   -0.1602    3.1643 N.pl3     1 <0>        -0.3365
     22 C16         6.1703    1.0854    2.5775 C.ar      1 <0>         0.1345
     23 C17         6.1173    1.2059    1.1955 C.ar      1 <0>        -0.1169
     24 C18         5.8526    2.4333    0.6202 C.ar      1 <0>        -0.0704
     25 C19         5.6407    3.5422    1.4200 C.ar      1 <0>        -0.0768
     26 C20         5.6934    3.4248    2.7976 C.ar      1 <0>        -0.0663
     27 C21         5.9512    2.1982    3.3779 C.ar      1 <0>        -0.0828
     28 Br1         5.2792    5.2213    0.6289 Br        1 <0>        -0.0232
     29 H2         -0.7943    3.0185    0.8655 H         1 <0>         0.1219
     30 H3          1.4808    3.8182    0.3679 H         1 <0>         0.1222
     31 H4          3.3360    2.2107    0.1740 H         1 <0>         0.1151
     32 H5          0.6396   -0.9968    0.9682 H         1 <0>         0.1241
     33 H6         -1.2158    0.6105    1.1607 H         1 <0>         0.1229
     34 H7          2.8548   -1.4286    0.0740 H         1 <0>         0.0932
     35 H8          3.9801   -0.0900   -0.2580 H         1 <0>         0.0454
     36 H9          4.1617    0.2093    2.1470 H         1 <0>         0.3450
     37 H10         3.1513   -2.5678    3.4401 H         1 <0>         0.1234
     38 H11         2.2790   -4.8626    3.6296 H         1 <0>         0.1223
     39 H12         3.0740   -6.6129    2.0909 H         1 <0>         0.1220
     40 H13         4.7407   -6.0681    0.3621 H         1 <0>         0.1234
     41 H14         5.6068   -3.7713    0.1673 H         1 <0>         0.1188
     42 H15         6.2834    0.3407    0.5708 H         1 <0>         0.1400
     43 H16         5.8114    2.5275   -0.4549 H         1 <0>         0.1516
     44 H17         5.5280    4.2919    3.4198 H         1 <0>         0.1522
     45 H18         5.9871    2.1060    4.4533 H         1 <0>         0.1498
@<TRIPOS>BOND
     1    1    6 ar
     2    1    2 ar
     3    1   29 1
     4    2    3 ar
     5    2   30 1
     6    3    4 ar
     7    3   31 1
     8    4    5 ar
     9    4    7 1
    10    5    6 ar
    11    5   32 1
    12    6   33 1
    13    7    8 1
    14    7   34 1
    15    7   35 1
    16    8    9 1
    17    8   36 1
    18    9   10 1
    19    9   11 1
    20    9   17 1
    21   11   16 ar
    22   11   12 ar
    23   12   13 ar
    24   12   37 1
    25   13   14 ar
    26   13   38 1
    27   14   15 ar
    28   14   39 1
    29   15   16 ar
    30   15   40 1
    31   16   41 1
    32   17   21 1
    33   17   18 2
    34   18   19 1
    35   19   20 2
    36   20   21 1
    37   21   22 1
    38   22   27 ar
    39   22   23 ar
    40   23   24 ar
    41   23   42 1
    42   24   25 ar
    43   24   43 1
    44   25   26 ar
    45   25   28 1
    46   26   27 ar
    47   26   44 1
    48   27   45 1
@<TRIPOS>MOLECULE
ZINC05450271
   48    50     0     0     0
SMALL
USER_CHARGES
N-(2,5-dimethylphenyl)-2-[(5-ethylsulfanyl-1,3,4-thiadiazol-2-yl)sulfanyl]-2-phenyl-acetamide
@<TRIPOS>ATOM
      1 C1          1.6147    4.3230  -12.8516 C.3       1 <0>        -0.1405
      2 C2          1.3384    3.6951  -11.4840 C.3       1 <0>        -0.1157
      3 S1          1.8066    1.9429  -11.5175 S.3       1 <0>         0.0503
      4 C3          1.4333    1.3707   -9.8934 C.2       1 <0>         0.0560
      5 N1          0.9303    2.0325   -8.8690 N.2       1 <0>        -0.3015
      6 N2          0.7098    1.3832   -7.6764 N.2       1 <0>        -0.2894
      7 C4          1.0120    0.1044   -7.5597 C.2       1 <0>         0.0385
      8 S2          1.6340   -0.2606   -9.1939 S.3       1 <0>         0.0670
      9 S3          0.8408   -0.9608   -6.1666 S.3       1 <0>         0.1406
     10 C5          0.1460    0.1104   -4.8779 C.3       1 <0>        -0.0776
     11 H1          0.7873    0.9817   -4.7451 H         1 <0>         0.1337
     12 C6         -1.2330    0.5592   -5.2874 C.ar      1 <0>        -0.1013
     13 C7         -2.2236   -0.3763   -5.5205 C.ar      1 <0>        -0.0931
     14 C8         -3.4898    0.0356   -5.8919 C.ar      1 <0>        -0.1197
     15 C9         -3.7630    1.3827   -6.0390 C.ar      1 <0>        -0.1040
     16 C10        -2.7709    2.3180   -5.8111 C.ar      1 <0>        -0.1188
     17 C11        -1.5059    1.9063   -5.4355 C.ar      1 <0>        -0.0762
     18 C12         0.0614   -0.6534   -3.5816 C.2       1 <0>         0.5458
     19 O1          0.0780   -1.8661   -3.5900 O.2       1 <0>        -0.4946
     20 N3         -0.0327    0.0111   -2.4128 N.am      1 <0>        -0.6548
     21 C13         0.0052   -0.6916   -1.2034 C.ar      1 <0>         0.1476
     22 C14         0.6314   -1.9296   -1.1372 C.ar      1 <0>        -0.1269
     23 C15         0.6612   -2.6236    0.0563 C.ar      1 <0>        -0.0693
     24 C16         0.0742   -2.0841    1.1865 C.ar      1 <0>        -0.1316
     25 C17        -0.5449   -0.8494    1.1252 C.ar      1 <0>        -0.0955
     26 C18        -0.5790   -0.1506   -0.0659 C.ar      1 <0>        -0.1184
     27 C19        -1.2550    1.1946   -0.1320 C.3       1 <0>        -0.1166
     28 C20         1.3346   -3.9699    0.1275 C.3       1 <0>        -0.1147
     29 H2          1.3333    5.3759  -12.8315 H         1 <0>         0.0847
     30 H3          2.6759    4.2349  -13.0842 H         1 <0>         0.0697
     31 H4          1.0316    3.8056  -13.6134 H         1 <0>         0.0696
     32 H5          0.2772    3.7832  -11.2514 H         1 <0>         0.0987
     33 H6          1.9215    4.2125  -10.7222 H         1 <0>         0.0988
     34 H7         -2.0092   -1.4290   -5.4091 H         1 <0>         0.1298
     35 H8         -4.2650   -0.6951   -6.0696 H         1 <0>         0.1269
     36 H9         -4.7515    1.7044   -6.3318 H         1 <0>         0.1248
     37 H10        -2.9843    3.3705   -5.9261 H         1 <0>         0.1260
     38 H11        -0.7309    2.6370   -5.2574 H         1 <0>         0.1256
     39 H12        -0.1266    0.9766   -2.4100 H         1 <0>         0.4144
     40 H13         1.0905   -2.3511   -2.0192 H         1 <0>         0.1457
     41 H14         0.0992   -2.6287    2.1188 H         1 <0>         0.1241
     42 H15        -1.0027   -0.4311    2.0094 H         1 <0>         0.1273
     43 H16        -0.5306    1.9768    0.0952 H         1 <0>         0.0719
     44 H17        -1.6562    1.3508   -1.1334 H         1 <0>         0.0619
     45 H18        -2.0670    1.2294    0.5942 H         1 <0>         0.0735
     46 H19         0.6091   -4.7514   -0.0983 H         1 <0>         0.0727
     47 H20         2.1476   -4.0083   -0.5975 H         1 <0>         0.0672
     48 H21         1.7341   -4.1237    1.1300 H         1 <0>         0.0677
@<TRIPOS>BOND
     1    1    2 1
     2    1   29 1
     3    1   30 1
     4    1   31 1
     5    2    3 1
     6    2   32 1
     7    2   33 1
     8    3    4 1
     9    4    8 1
    10    4    5 2
    11    5    6 1
    12    6    7 2
    13    7    8 1
    14    7    9 1
    15    9   10 1
    16   10   11 1
    17   10   12 1
    18   10   18 1
    19   12   17 ar
    20   12   13 ar
    21   13   14 ar
    22   13   34 1
    23   14   15 ar
    24   14   35 1
    25   15   16 ar
    26   15   36 1
    27   16   17 ar
    28   16   37 1
    29   17   38 1
    30   18   19 2
    31   18   20 am
    32   20   21 1
    33   20   39 1
    34   21   26 ar
    35   21   22 ar
    36   22   23 ar
    37   22   40 1
    38   23   24 ar
    39   23   28 1
    40   24   25 ar
    41   24   41 1
    42   25   26 ar
    43   25   42 1
    44   26   27 1
    45   27   43 1
    46   27   44 1
    47   27   45 1
    48   28   46 1
    49   28   47 1
    50   28   48 1
@<TRIPOS>MOLECULE
ZINC02732101
   47    49     0     0     0
SMALL
USER_CHARGES
N-[(S)-(4-bromo-3,5-dimethyl-pyrazol-1-yl)-[4-(difluoromethoxy)phenyl]methyl]-4-methyl-aniline
@<TRIPOS>ATOM
      1 C1         -7.6575   -1.3840    3.2703 C.3       1 <0>        -0.1092
      2 C2         -6.5451   -0.5830    2.6442 C.ar      1 <0>        -0.1343
      3 C3         -6.4297    0.7678    2.9167 C.ar      1 <0>        -0.0729
      4 C4         -5.4112    1.5047    2.3449 C.ar      1 <0>        -0.1772
      5 C5         -4.5021    0.8874    1.4951 C.ar      1 <0>         0.2029
      6 C6         -4.6241   -0.4686    1.2193 C.ar      1 <0>        -0.1876
      7 C7         -5.6418   -1.2006    1.7986 C.ar      1 <0>        -0.0725
      8 N1         -3.4711    1.6298    0.9148 N.pl3     1 <0>        -0.7280
      9 C8         -2.5132    0.9772    0.0188 C.3       1 <0>         0.4422
     10 H1         -2.3281   -0.0402    0.3636 H         1 <0>         0.1228
     11 C9         -1.2196    1.7502    0.0173 C.ar      1 <0>        -0.1449
     12 C10        -0.0126    1.0758    0.0080 C.ar      1 <0>        -0.0596
     13 C11         1.1746    1.7822    0.0004 C.ar      1 <0>        -0.1323
     14 C12         1.1551    3.1693    0.0081 C.ar      1 <0>         0.1232
     15 C13        -0.0572    3.8436    0.0232 C.ar      1 <0>        -0.1885
     16 C14        -1.2416    3.1326    0.0307 C.ar      1 <0>        -0.0447
     17 O1          2.3216    3.8665    0.0002 O.3       1 <0>        -0.3183
     18 C15         2.2254    5.2922    0.0088 C.3       1 <0>         0.4113
     19 F1          1.5247    5.7192   -1.1243 F         1 <0>        -0.1960
     20 F2          1.5474    5.7069    1.1601 F         1 <0>        -0.1965
     21 N2         -3.0616    0.9404   -1.3392 N.pl3     1 <0>        -0.3693
     22 C16        -3.0421   -0.1196   -2.1752 C.2       1 <0>         0.1265
     23 C17        -3.6491    0.2523   -3.3266 C.2       1 <0>        -0.2387
     24 C18        -4.0451    1.5875   -3.1925 C.2       1 <0>         0.1046
     25 N3         -3.6934    2.0006   -2.0018 N.2       1 <0>        -0.2717
     26 C19        -4.7546    2.4081   -4.2386 C.3       1 <0>        -0.0784
     27 Br1        -3.9091   -0.8378   -4.8498 Br        1 <0>        -0.0211
     28 C20        -2.4535   -1.4747   -1.8785 C.3       1 <0>        -0.1054
     29 H2         -8.5312   -1.3634    2.6189 H         1 <0>         0.0659
     30 H3         -7.3305   -2.4147    3.4072 H         1 <0>         0.0633
     31 H4         -7.9154   -0.9531    4.2378 H         1 <0>         0.0634
     32 H5         -7.1366    1.2470    3.5778 H         1 <0>         0.1233
     33 H6         -5.3214    2.5595    2.5585 H         1 <0>         0.1215
     34 H7         -3.9215   -0.9506    0.5556 H         1 <0>         0.1132
     35 H8         -5.7348   -2.2557    1.5878 H         1 <0>         0.1221
     36 H9         -3.3893    2.5774    1.1050 H         1 <0>         0.4068
     37 H10         0.0021   -0.0041    0.0020 H         1 <0>         0.1369
     38 H11         2.1171    1.2550   -0.0111 H         1 <0>         0.1425
     39 H12        -0.0750    4.9235    0.0296 H         1 <0>         0.1388
     40 H13        -2.1857    3.6571    0.0422 H         1 <0>         0.1318
     41 H14         3.2262    5.7240    0.0012 H         1 <0>         0.1858
     42 H15        -4.0191    2.9124   -4.8653 H         1 <0>         0.0811
     43 H16        -5.3713    1.7549   -4.8560 H         1 <0>         0.0817
     44 H17        -5.3866    3.1503   -3.7511 H         1 <0>         0.0763
     45 H18        -3.2168   -2.1129   -1.4332 H         1 <0>         0.0895
     46 H19        -2.0968   -1.9266   -2.8041 H         1 <0>         0.0956
     47 H20        -1.6210   -1.3650   -1.1835 H         1 <0>         0.0741
@<TRIPOS>BOND
     1    1    2 1
     2    1   29 1
     3    1   30 1
     4    1   31 1
     5    2    7 ar
     6    2    3 ar
     7    3    4 ar
     8    3   32 1
     9    4    5 ar
    10    4   33 1
    11    5    6 ar
    12    5    8 1
    13    6    7 ar
    14    6   34 1
    15    7   35 1
    16    8    9 1
    17    8   36 1
    18    9   10 1
    19    9   11 1
    20    9   21 1
    21   11   16 ar
    22   11   12 ar
    23   12   13 ar
    24   12   37 1
    25   13   14 ar
    26   13   38 1
    27   14   15 ar
    28   14   17 1
    29   15   16 ar
    30   15   39 1
    31   16   40 1
    32   17   18 1
    33   18   19 1
    34   18   20 1
    35   18   41 1
    36   21   25 1
    37   21   22 1
    38   22   23 2
    39   22   28 1
    40   23   24 1
    41   23   27 1
    42   24   25 2
    43   24   26 1
    44   26   42 1
    45   26   43 1
    46   26   44 1
    47   28   45 1
    48   28   46 1
    49   28   47 1
@<TRIPOS>MOLECULE
ZINC03062556
   55    58     0     0     0
SMALL
USER_CHARGES
(2Z)-2-benzylidene-4-[(4-fluorophenyl)methyl]-3-oxo-N-propyl-1,4-benzothiazine-6-carboxamide
@<TRIPOS>ATOM
      1 C1        -10.6213    8.4311    6.0701 C.3       1 <0>        -0.1531
      2 C2         -9.4297    8.0224    5.2017 C.3       1 <0>        -0.1361
      3 C3         -9.5791    6.5570    4.7880 C.3       1 <0>         0.1187
      4 N1         -8.4381    6.1656    3.9566 N.am      1 <0>        -0.7343
      5 C4         -8.3555    4.9101    3.4736 C.2       1 <0>         0.5581
      6 O1         -9.2280    4.1021    3.7279 O.2       1 <0>        -0.5356
      7 C5         -7.2067    4.5160    2.6364 C.ar      1 <0>        -0.0963
      8 C6         -6.2045    5.4466    2.3452 C.ar      1 <0>        -0.0950
      9 C7         -5.1355    5.0734    1.5620 C.ar      1 <0>        -0.0638
     10 C8         -5.0524    3.7791    1.0644 C.ar      1 <0>        -0.1287
     11 C9         -6.0455    2.8350    1.3473 C.ar      1 <0>         0.1700
     12 C10        -7.1234    3.2161    2.1371 C.ar      1 <0>        -0.0919
     13 N2         -6.0009    1.5285    0.8759 N.am      1 <0>        -0.5385
     14 C11        -4.9195    0.8709    0.4414 C.2       1 <0>         0.5731
     15 O2         -5.0071   -0.3024    0.1318 O.2       1 <0>        -0.5004
     16 C12        -3.6143    1.5610    0.3401 C.2       1 <0>        -0.2269
     17 C13        -2.4405    0.8939    0.4506 C.2       1 <0>         0.0396
     18 C14        -1.1731    1.6383    0.4953 C.ar      1 <0>        -0.0972
     19 C15        -0.0076    1.0750   -0.0355 C.ar      1 <0>        -0.0863
     20 C16         1.1754    1.7819    0.0048 C.ar      1 <0>        -0.1267
     21 C17         1.2131    3.0434    0.5731 C.ar      1 <0>        -0.0995
     22 C18         0.0656    3.6055    1.1052 C.ar      1 <0>        -0.1229
     23 C19        -1.1252    2.9113    1.0736 C.ar      1 <0>        -0.0902
     24 S1         -3.6758    3.3111    0.0581 S.3       1 <0>         0.0464
     25 C20        -7.2697    0.7968    0.8451 C.3       1 <0>         0.1240
     26 C21        -8.0103    1.1288   -0.4247 C.ar      1 <0>        -0.1252
     27 C22        -8.8945    2.1913   -0.4509 C.ar      1 <0>        -0.0699
     28 C23        -9.5706    2.4996   -1.6161 C.ar      1 <0>        -0.1547
     29 C24        -9.3701    1.7376   -2.7546 C.ar      1 <0>         0.1090
     30 C25        -8.4883    0.6705   -2.7257 C.ar      1 <0>        -0.1555
     31 C26        -7.8093    0.3672   -1.5608 C.ar      1 <0>        -0.0651
     32 F1        -10.0340    2.0352   -3.8929 F         1 <0>        -0.1371
     33 H1        -10.5139    9.4847    6.3676 H         1 <0>         0.0618
     34 H2        -10.6543    7.7978    6.9689 H         1 <0>         0.0588
     35 H3        -11.5523    8.3046    5.4981 H         1 <0>         0.0588
     36 H4         -9.3967    8.6557    4.3029 H         1 <0>         0.0701
     37 H5         -8.4986    8.1489    5.7737 H         1 <0>         0.0701
     38 H6         -9.6122    5.9238    5.6869 H         1 <0>         0.0691
     39 H7        -10.5101    6.4306    4.2160 H         1 <0>         0.0692
     40 H8         -7.6488    6.8964    3.7266 H         1 <0>         0.4203
     41 H9         -6.2686    6.4527    2.7327 H         1 <0>         0.1379
     42 H10        -4.3591    5.7888    1.3342 H         1 <0>         0.1452
     43 H11        -7.9007    2.5020    2.3658 H         1 <0>         0.1501
     44 H12        -2.4354   -0.2046    0.5069 H         1 <0>         0.1567
     45 H13        -0.0355    0.0909   -0.4796 H         1 <0>         0.1285
     46 H14         2.0750    1.3503   -0.4085 H         1 <0>         0.1275
     47 H15         2.1428    3.5922    0.6013 H         1 <0>         0.1255
     48 H16         0.1032    4.5905    1.5466 H         1 <0>         0.1280
     49 H17        -2.0196    3.3511    1.4894 H         1 <0>         0.1442
     50 H18        -7.0704   -0.2844    0.8814 H         1 <0>         0.1179
     51 H19        -7.8811    1.0862    1.7125 H         1 <0>         0.1050
     52 H20        -9.0538    2.7830    0.4384 H         1 <0>         0.1333
     53 H21       -10.2582    3.3322   -1.6375 H         1 <0>         0.1378
     54 H22        -8.3313    0.0751   -3.6130 H         1 <0>         0.1382
     55 H23        -7.1217   -0.4653   -1.5379 H         1 <0>         0.1379
@<TRIPOS>BOND
     1    1    2 1
     2    1   33 1
     3    1   34 1
     4    1   35 1
     5    2    3 1
     6    2   36 1
     7    2   37 1
     8    3    4 1
     9    3   38 1
    10    3   39 1
    11    4    5 am
    12    4   40 1
    13    5    6 2
    14    5    7 1
    15    7   12 ar
    16    7    8 ar
    17    8    9 ar
    18    8   41 1
    19    9   10 ar
    20    9   42 1
    21   10   24 1
    22   10   11 ar
    23   11   12 ar
    24   11   13 1
    25   12   43 1
    26   13   14 am
    27   13   25 1
    28   14   15 2
    29   14   16 1
    30   16   17 2
    31   16   24 1
    32   17   18 1
    33   17   44 1
    34   18   23 ar
    35   18   19 ar
    36   19   20 ar
    37   19   45 1
    38   20   21 ar
    39   20   46 1
    40   21   22 ar
    41   21   47 1
    42   22   23 ar
    43   22   48 1
    44   23   49 1
    45   25   26 1
    46   25   50 1
    47   25   51 1
    48   26   31 ar
    49   26   27 ar
    50   27   28 ar
    51   27   52 1
    52   28   29 ar
    53   28   53 1
    54   29   30 ar
    55   29   32 1
    56   30   31 ar
    57   30   54 1
    58   31   55 1
@<TRIPOS>MOLECULE
ZINC38666361
   62    65     0     0     0
SMALL
USER_CHARGES

@<TRIPOS>ATOM
      1 C1          0.1459   -2.3974   -7.3797 C.3       1 <0>        -0.1479
      2 C2         -0.3654   -3.7896   -7.0039 C.3       1 <0>        -0.0910
      3 C3         -1.3731   -3.6708   -5.8897 C.ar      1 <0>        -0.0535
      4 C4         -0.9520   -3.7162   -4.5725 C.ar      1 <0>        -0.1264
      5 C5         -1.8694   -3.6080   -3.5478 C.ar      1 <0>        -0.0552
      6 C6         -3.2248   -3.4525   -3.8423 C.ar      1 <0>        -0.1426
      7 C7         -3.6429   -3.4075   -5.1732 C.ar      1 <0>        -0.0800
      8 C8         -2.7146   -3.5111   -6.1885 C.ar      1 <0>        -0.1249
      9 C9         -4.2135   -3.3365   -2.7492 C.2       1 <0>         0.5595
     10 O1         -3.8466   -3.3764   -1.5911 O.2       1 <0>        -0.5363
     11 N1         -5.5217   -3.1864   -3.0369 N.am      1 <0>        -0.7215
     12 C10        -6.5013   -3.0714   -1.9537 C.3       1 <0>         0.1126
     13 C11        -7.9021   -2.9112   -2.5479 C.3       1 <0>         0.2113
     14 H1         -8.1739   -3.8186   -3.0874 H         1 <0>         0.0974
     15 C12        -8.8937   -2.6702   -1.4389 C.ar      1 <0>        -0.1612
     16 C13        -8.8017   -1.5258   -0.6680 C.ar      1 <0>        -0.0564
     17 C14        -9.7087   -1.3018    0.3490 C.ar      1 <0>        -0.1975
     18 C15       -10.7142   -2.2276    0.5972 C.ar      1 <0>         0.2223
     19 C16       -10.8037   -3.3760   -0.1791 C.ar      1 <0>        -0.1970
     20 C17        -9.8968   -3.5911   -1.1982 C.ar      1 <0>        -0.0519
     21 N2        -11.6329   -2.0044    1.6254 N.pl3     1 <0>        -0.6375
     22 C18       -11.5367   -0.7928    2.4434 C.3       1 <0>         0.0914
     23 C19       -12.6927   -2.9818    1.8857 C.3       1 <0>         0.0913
     24 N3         -7.9143   -1.7728   -3.4698 N.pl3     1 <0>        -0.6181
     25 C20        -7.5172   -0.4060   -3.1213 C.3       1 <0>         0.1122
     26 C21        -7.7041    0.4092   -4.4114 C.3       1 <0>        -0.0819
     27 C22        -8.2096   -0.5935   -5.4242 C.ar      1 <0>        -0.1686
     28 C23        -8.3001   -1.8330   -4.8099 C.ar      1 <0>         0.1983
     29 C24        -8.7428   -2.9278   -5.5549 C.ar      1 <0>        -0.1834
     30 C25        -9.0794   -2.7744   -6.8831 C.ar      1 <0>        -0.0735
     31 C26        -8.9815   -1.5348   -7.4874 C.ar      1 <0>        -0.1724
     32 C27        -8.5526   -0.4439   -6.7539 C.ar      1 <0>        -0.0608
     33 H2          0.8748   -2.4833   -8.1856 H         1 <0>         0.0609
     34 H3         -0.6898   -1.7803   -7.7099 H         1 <0>         0.0567
     35 H4          0.6169   -1.9366   -6.5114 H         1 <0>         0.0569
     36 H5         -0.8364   -4.2503   -7.8722 H         1 <0>         0.0753
     37 H6          0.4703   -4.4066   -6.6737 H         1 <0>         0.0756
     38 H7          0.0970   -3.8369   -4.3460 H         1 <0>         0.1296
     39 H8         -1.5395   -3.6440   -2.5201 H         1 <0>         0.1359
     40 H9         -4.6902   -3.2874   -5.4077 H         1 <0>         0.1232
     41 H10        -3.0362   -3.4721   -7.2187 H         1 <0>         0.1284
     42 H11        -5.8145   -3.1545   -3.9611 H         1 <0>         0.4015
     43 H12        -6.4687   -3.9698   -1.3374 H         1 <0>         0.0830
     44 H13        -6.2650   -2.2015   -1.3409 H         1 <0>         0.0739
     45 H14        -8.0195   -0.8067   -0.8613 H         1 <0>         0.1233
     46 H15        -9.6361   -0.4081    0.9510 H         1 <0>         0.1231
     47 H16       -11.5840   -4.0980    0.0115 H         1 <0>         0.1238
     48 H17        -9.9684   -4.4816   -1.8050 H         1 <0>         0.1212
     49 H18       -12.1293    0.0008    1.9884 H         1 <0>         0.0493
     50 H19       -11.9143   -0.9997    3.4448 H         1 <0>         0.0677
     51 H20       -10.4950   -0.4783    2.5057 H         1 <0>         0.0695
     52 H21       -12.3390   -3.7174    2.6082 H         1 <0>         0.0499
     53 H22       -13.5680   -2.4706    2.2865 H         1 <0>         0.0675
     54 H23       -12.9595   -3.4846    0.9562 H         1 <0>         0.0693
     55 H24        -8.1586   -0.0157   -2.3311 H         1 <0>         0.0733
     56 H25        -6.4735   -0.3837   -2.8078 H         1 <0>         0.0665
     57 H26        -8.4393    1.1994   -4.2589 H         1 <0>         0.0822
     58 H27        -6.7529    0.8311   -4.7359 H         1 <0>         0.0823
     59 H28        -8.8216   -3.8989   -5.0889 H         1 <0>         0.1142
     60 H29        -9.4204   -3.6257   -7.4536 H         1 <0>         0.1212
     61 H30        -9.2454   -1.4174   -8.5281 H         1 <0>         0.1202
     62 H31        -8.4742    0.5249   -7.2248 H         1 <0>         0.1180
@<TRIPOS>BOND
     1    1    2 1
     2    1   33 1
     3    1   34 1
     4    1   35 1
     5    2    3 1
     6    2   36 1
     7    2   37 1
     8    3    8 ar
     9    3    4 ar
    10    4    5 ar
    11    4   38 1
    12    5    6 ar
    13    5   39 1
    14    6    7 ar
    15    6    9 1
    16    7    8 ar
    17    7   40 1
    18    8   41 1
    19    9   10 2
    20    9   11 am
    21   11   12 1
    22   11   42 1
    23   12   13 1
    24   12   43 1
    25   12   44 1
    26   13   14 1
    27   13   15 1
    28   13   24 1
    29   15   20 ar
    30   15   16 ar
    31   16   17 ar
    32   16   45 1
    33   17   18 ar
    34   17   46 1
    35   18   19 ar
    36   18   21 1
    37   19   20 ar
    38   19   47 1
    39   20   48 1
    40   21   22 1
    41   21   23 1
    42   22   49 1
    43   22   50 1
    44   22   51 1
    45   23   52 1
    46   23   53 1
    47   23   54 1
    48   24   28 1
    49   24   25 1
    50   25   26 1
    51   25   55 1
    52   25   56 1
    53   26   27 1
    54   26   57 1
    55   26   58 1
    56   27   32 ar
    57   27   28 ar
    58   28   29 ar
    59   29   30 ar
    60   29   59 1
    61   30   31 ar
    62   30   60 1
    63   31   32 ar
    64   31   61 1
    65   32   62 1
@<TRIPOS>MOLECULE
ZINC08782718
   63    67     0     0     0
SMALL
USER_CHARGES

@<TRIPOS>ATOM
      1 C1         -0.0187    1.5258    0.0104 C.3       1 <0>        -0.1399
      2 C2          0.0021   -0.0041    0.0020 C.3       1 <0>         0.0524
      3 H1         -1.0205   -0.3814    0.0098 H         1 <0>         0.1057
      4 C3          0.7309   -0.5033    1.2229 C.ar      1 <0>        -0.0927
      5 C4          2.0501   -0.1479    1.4338 C.ar      1 <0>        -0.0906
      6 C5          2.7187   -0.6058    2.5537 C.ar      1 <0>        -0.1156
      7 C6          2.0680   -1.4188    3.4630 C.ar      1 <0>        -0.0719
      8 C7          0.7486   -1.7734    3.2525 C.ar      1 <0>        -0.1206
      9 C8          0.0787   -1.3120    2.1348 C.ar      1 <0>        -0.1053
     10 C9          2.7972   -1.9188    4.6833 C.3       1 <0>        -0.0797
     11 C10         2.6142   -0.9230    5.8304 C.3       1 <0>        -0.0899
     12 C11         3.2480   -1.4887    7.1029 C.3       1 <0>        -0.1490
     13 C12         3.2904    0.4011    5.4691 C.3       1 <0>        -0.1520
     14 C13         0.7074   -0.4901   -1.2379 C.2       1 <0>         0.0403
     15 N1          1.9438   -0.2809   -1.6439 N.2       1 <0>        -0.2252
     16 N2          2.3285   -0.7944   -2.7325 N.2       1 <0>        -0.2998
     17 C14         1.5285   -1.5341   -3.4750 C.2       1 <0>         0.2351
     18 S1          0.1064   -1.5196   -2.5696 S.3       1 <0>         0.0692
     19 N3          1.7910   -2.1659   -4.6858 N.am      1 <0>        -0.6148
     20 C15         3.0099   -2.0595   -5.2511 C.2       1 <0>         0.5173
     21 O1          3.8778   -1.4128   -4.7039 O.2       1 <0>        -0.4599
     22 C16         3.2943   -2.7441   -6.5631 C.3       1 <0>        -0.0607
     23 C17         2.3420   -2.2092   -7.6345 C.3       1 <0>        -0.1037
     24 C18         2.6307   -2.9042   -8.9666 C.3       1 <0>        -0.0831
     25 C19         4.0761   -2.6261   -9.3841 C.3       1 <0>        -0.1115
     26 C20         5.0285   -3.1611   -8.3128 C.3       1 <0>        -0.0860
     27 C21         4.7397   -2.4660   -6.9807 C.3       1 <0>        -0.0895
     28 C22         4.8241   -4.6692   -8.1559 C.3       1 <0>        -0.1116
     29 C23         3.3787   -4.9474   -7.7383 C.3       1 <0>        -0.0831
     30 C24         2.4264   -4.4124   -8.8097 C.3       1 <0>        -0.1110
     31 C25         3.0900   -4.2523   -6.4063 C.3       1 <0>        -0.1038
     32 H2          1.0039    1.9031    0.0027 H         1 <0>         0.0706
     33 H3         -0.5459    1.8868   -0.8726 H         1 <0>         0.0639
     34 H4         -0.5289    1.8773    0.9072 H         1 <0>         0.0755
     35 H5          2.5584    0.4872    0.7235 H         1 <0>         0.1307
     36 H6          3.7495   -0.3288    2.7182 H         1 <0>         0.1221
     37 H7          0.2403   -2.4088    3.9627 H         1 <0>         0.1220
     38 H8         -0.9532   -1.5860    1.9723 H         1 <0>         0.1229
     39 H9          2.3937   -2.8882    4.9759 H         1 <0>         0.0719
     40 H10         3.8584   -2.0205    4.4563 H         1 <0>         0.0723
     41 H11         1.5506   -0.7538    5.9985 H         1 <0>         0.0705
     42 H12         4.3116   -1.6579    6.9348 H         1 <0>         0.0550
     43 H13         3.1176   -0.7793    7.9201 H         1 <0>         0.0559
     44 H14         2.7663   -2.4320    7.3603 H         1 <0>         0.0544
     45 H15         3.1600    1.1105    6.2863 H         1 <0>         0.0533
     46 H16         4.3539    0.2319    5.3010 H         1 <0>         0.0539
     47 H17         2.8388    0.8041    4.5626 H         1 <0>         0.0598
     48 H18         1.0969   -2.6831   -5.1234 H         1 <0>         0.4262
     49 H19         1.3123   -2.4073   -7.3370 H         1 <0>         0.0660
     50 H20         2.4875   -1.1347   -7.7462 H         1 <0>         0.0721
     51 H21         1.9523   -2.5231   -9.7298 H         1 <0>         0.0775
     52 H22         4.2819   -3.1213  -10.3331 H         1 <0>         0.0669
     53 H23         4.2217   -1.5517   -9.4959 H         1 <0>         0.0647
     54 H24         6.0582   -2.9629   -8.6103 H         1 <0>         0.0776
     55 H25         4.8853   -1.3916   -7.0925 H         1 <0>         0.0729
     56 H26         5.4181   -2.8471   -6.2175 H         1 <0>         0.0728
     57 H27         5.0298   -5.1644   -9.1049 H         1 <0>         0.0669
     58 H28         5.5026   -5.0504   -7.3927 H         1 <0>         0.0647
     59 H29         3.2332   -6.0218   -7.6266 H         1 <0>         0.0775
     60 H30         1.3967   -4.6105   -8.5122 H         1 <0>         0.0641
     61 H31         2.6321   -4.9076   -9.7587 H         1 <0>         0.0680
     62 H32         3.7684   -4.6334   -5.6430 H         1 <0>         0.0720
     63 H33         2.0602   -4.4504   -6.1088 H         1 <0>         0.0660
@<TRIPOS>BOND
     1    1    2 1
     2    1   32 1
     3    1   33 1
     4    1   34 1
     5    2    3 1
     6    2    4 1
     7    2   14 1
     8    4    9 ar
     9    4    5 ar
    10    5    6 ar
    11    5   35 1
    12    6    7 ar
    13    6   36 1
    14    7    8 ar
    15    7   10 1
    16    8    9 ar
    17    8   37 1
    18    9   38 1
    19   10   11 1
    20   10   39 1
    21   10   40 1
    22   11   12 1
    23   11   13 1
    24   11   41 1
    25   12   42 1
    26   12   43 1
    27   12   44 1
    28   13   45 1
    29   13   46 1
    30   13   47 1
    31   14   18 1
    32   14   15 2
    33   15   16 1
    34   16   17 2
    35   17   18 1
    36   17   19 1
    37   19   20 am
    38   19   48 1
    39   20   21 2
    40   20   22 1
    41   22   27 1
    42   22   31 1
    43   22   23 1
    44   23   24 1
    45   23   49 1
    46   23   50 1
    47   24   30 1
    48   24   25 1
    49   24   51 1
    50   25   26 1
    51   25   52 1
    52   25   53 1
    53   26   27 1
    54   26   28 1
    55   26   54 1
    56   27   55 1
    57   27   56 1
    58   28   29 1
    59   28   57 1
    60   28   58 1
    61   29   30 1
    62   29   31 1
    63   29   59 1
    64   30   60 1
    65   30   61 1
    66   31   62 1
    67   31   63 1
@<TRIPOS>MOLECULE
ZINC06559022
   49    52     0     0     0
SMALL
USER_CHARGES
(3-bromophenyl)methyl 2-(1-adamantylcarbonylamino)acetate
@<TRIPOS>ATOM
      1 C1        -12.8667    1.3101    3.3559 C.ar      1 <0>        -0.1144
      2 C2        -11.5598    1.7562    3.2877 C.ar      1 <0>        -0.0778
      3 C3        -10.5413    0.9997    3.8362 C.ar      1 <0>        -0.0964
      4 C4        -10.8302   -0.1984    4.4625 C.ar      1 <0>        -0.0651
      5 C5        -12.1380   -0.6425    4.5356 C.ar      1 <0>        -0.0945
      6 C6        -13.1565    0.1125    3.9819 C.ar      1 <0>        -0.0772
      7 Br1       -12.5339   -2.2809    5.3928 Br        1 <0>        -0.0424
      8 C7         -9.1165    1.4839    3.7569 C.3       1 <0>         0.1113
      9 O1         -8.5008    0.9797    2.5423 O.3       1 <0>        -0.3448
     10 C8         -7.2223    1.3226    2.3195 C.2       1 <0>         0.4620
     11 O2         -6.6370    2.0209    3.1131 O.2       1 <0>        -0.5022
     12 C9         -6.5170    0.8366    1.0797 C.3       1 <0>         0.1259
     13 N1         -5.1426    1.3437    1.0693 N.am      1 <0>        -0.7249
     14 C10        -4.3180    1.0349    0.0488 C.2       1 <0>         0.5292
     15 O3         -4.7139    0.3372   -0.8608 O.2       1 <0>        -0.5310
     16 C11        -2.9042    1.5565    0.0381 C.3       1 <0>        -0.0662
     17 C12        -2.1881    1.0631   -1.2207 C.3       1 <0>        -0.0874
     18 C13        -0.7527    1.5927   -1.2315 C.3       1 <0>        -0.0869
     19 C14        -0.0127    1.0858    0.0080 C.3       1 <0>        -0.1107
     20 C15        -0.7288    1.5792    1.2668 C.3       1 <0>        -0.0839
     21 C16        -2.1642    1.0497    1.2777 C.3       1 <0>        -0.1018
     22 C17        -0.7496    3.1091    1.2752 C.3       1 <0>        -0.1107
     23 C18        -1.4896    3.6159    0.0357 C.3       1 <0>        -0.0839
     24 C19        -0.7734    3.1225   -1.2231 C.3       1 <0>        -0.1107
     25 C20        -2.9250    3.0863    0.0466 C.3       1 <0>        -0.1017
     26 H1        -13.6618    1.8997    2.9239 H         1 <0>         0.1381
     27 H2        -11.3343    2.6943    2.8024 H         1 <0>         0.1332
     28 H3        -10.0348   -0.7876    4.8943 H         1 <0>         0.1357
     29 H4        -14.1778   -0.2337    4.0390 H         1 <0>         0.1372
     30 H5         -8.5613    1.1228    4.6226 H         1 <0>         0.0861
     31 H6         -9.1032    2.5738    3.7455 H         1 <0>         0.0874
     32 H7         -7.0441    1.1977    0.1966 H         1 <0>         0.1147
     33 H8         -6.5022   -0.2533    1.0737 H         1 <0>         0.1147
     34 H9         -4.8260    1.9017    1.7968 H         1 <0>         0.4122
     35 H10        -2.7153    1.4241   -2.1037 H         1 <0>         0.0705
     36 H11        -2.1733   -0.0268   -1.2266 H         1 <0>         0.0705
     37 H12        -0.2425    1.2411   -2.1283 H         1 <0>         0.0753
     38 H13         0.0021   -0.0041    0.0020 H         1 <0>         0.0637
     39 H14         1.0099    1.4631    0.0003 H         1 <0>         0.0651
     40 H15        -0.2017    1.2182    2.1499 H         1 <0>         0.0753
     41 H16        -2.6744    1.4012    2.1745 H         1 <0>         0.0672
     42 H17        -2.1494   -0.0402    1.2717 H         1 <0>         0.0692
     43 H18        -1.2598    3.4606    2.1720 H         1 <0>         0.0638
     44 H19         0.2730    3.4864    1.2675 H         1 <0>         0.0660
     45 H20        -1.5044    4.7058    0.0417 H         1 <0>         0.0753
     46 H21         0.2491    3.4998   -1.2308 H         1 <0>         0.0651
     47 H22        -1.3006    3.4836   -2.1062 H         1 <0>         0.0636
     48 H23        -3.4522    3.4474   -0.8365 H         1 <0>         0.0691
     49 H24        -3.4352    3.4378    0.9434 H         1 <0>         0.0672
@<TRIPOS>BOND
     1    1    6 ar
     2    1    2 ar
     3    1   26 1
     4    2    3 ar
     5    2   27 1
     6    3    4 ar
     7    3    8 1
     8    4    5 ar
     9    4   28 1
    10    5    6 ar
    11    5    7 1
    12    6   29 1
    13    8    9 1
    14    8   30 1
    15    8   31 1
    16    9   10 1
    17   10   11 2
    18   10   12 1
    19   12   13 1
    20   12   32 1
    21   12   33 1
    22   13   14 am
    23   13   34 1
    24   14   15 2
    25   14   16 1
    26   16   21 1
    27   16   25 1
    28   16   17 1
    29   17   18 1
    30   17   35 1
    31   17   36 1
    32   18   24 1
    33   18   19 1
    34   18   37 1
    35   19   20 1
    36   19   38 1
    37   19   39 1
    38   20   21 1
    39   20   22 1
    40   20   40 1
    41   21   41 1
    42   21   42 1
    43   22   23 1
    44   22   43 1
    45   22   44 1
    46   23   24 1
    47   23   25 1
    48   23   45 1
    49   24   46 1
    50   24   47 1
    51   25   48 1
    52   25   49 1
@<TRIPOS>MOLECULE
ZINC05619118
   43    45     0     0     0
SMALL
USER_CHARGES
2-(1-allylbenzimidazol-2-yl)sulfanyl-N-[2-(trifluoromethyl)phenyl]acetamide
@<TRIPOS>ATOM
      1 C1        -10.8941   -2.7736    1.1550 C.2       1 <0>        -0.1550
      2 C2         -9.7059   -2.3110    0.8543 C.2       1 <0>        -0.1863
      3 C3         -9.4180   -1.8250   -0.5428 C.3       1 <0>         0.1371
      4 N1         -8.9133   -0.4508   -0.4875 N.pl3     1 <0>        -0.4685
      5 C4         -9.6737    0.7064   -0.5328 C.ar      1 <0>         0.0591
      6 C5        -11.0330    0.9599   -0.6362 C.ar      1 <0>        -0.1083
      7 C6        -11.4888    2.2619   -0.6630 C.ar      1 <0>        -0.0995
      8 C7        -10.5959    3.3205   -0.5870 C.ar      1 <0>        -0.1246
      9 C8         -9.2428    3.0874   -0.4835 C.ar      1 <0>        -0.0660
     10 C9         -8.7650    1.7747   -0.4555 C.ar      1 <0>         0.0557
     11 N2         -7.5210    1.2362   -0.3629 N.2       1 <0>        -0.4954
     12 C10        -7.6052   -0.0715   -0.3779 C.2       1 <0>         0.2440
     13 S1         -6.2357   -1.1757   -0.2792 S.3       1 <0>         0.0808
     14 C11        -4.8784    0.0163   -0.1657 C.3       1 <0>        -0.1488
     15 C12        -3.5682   -0.7219   -0.0691 C.2       1 <0>         0.5405
     16 O1         -3.5535   -1.9347   -0.0763 O.2       1 <0>        -0.4943
     17 N3         -2.4128   -0.0346    0.0253 N.am      1 <0>        -0.6684
     18 C13        -1.1901   -0.7144   -0.0015 C.ar      1 <0>         0.2011
     19 C14        -1.0973   -1.9557   -0.6176 C.ar      1 <0>        -0.1340
     20 C15         0.1107   -2.6243   -0.6419 C.ar      1 <0>        -0.0626
     21 C16         1.2276   -2.0589   -0.0540 C.ar      1 <0>        -0.1368
     22 C17         1.1398   -0.8211    0.5555 C.ar      1 <0>        -0.0504
     23 C18        -0.0670   -0.1497    0.5883 C.ar      1 <0>        -0.2181
     24 C19        -0.1631    1.1969    1.2579 C.3       1 <0>         0.5082
     25 F1          1.0881    1.5518    1.7733 F         1 <0>        -0.1707
     26 F2         -0.5710    2.1545    0.3231 F         1 <0>        -0.1784
     27 F3         -1.0956    1.1345    2.2989 F         1 <0>        -0.1741
     28 H1        -11.6673   -2.8066    0.4018 H         1 <0>         0.1013
     29 H2        -11.1004   -3.1219    2.1563 H         1 <0>         0.1083
     30 H3         -8.9327   -2.2780    1.6076 H         1 <0>         0.1193
     31 H4        -10.3341   -1.8521   -1.1329 H         1 <0>         0.0994
     32 H5         -8.6693   -2.4687   -1.0044 H         1 <0>         0.1046
     33 H6        -11.7334    0.1400   -0.6961 H         1 <0>         0.1216
     34 H7        -12.5478    2.4580   -0.7433 H         1 <0>         0.1318
     35 H8        -10.9647    4.3353   -0.6089 H         1 <0>         0.1317
     36 H9         -8.5531    3.9164   -0.4245 H         1 <0>         0.1301
     37 H10        -5.0124    0.6362    0.7209 H         1 <0>         0.1345
     38 H11        -4.8747    0.6484   -1.0537 H         1 <0>         0.1357
     39 H12        -2.4288    0.9314    0.1118 H         1 <0>         0.4167
     40 H13        -1.9690   -2.3974   -1.0775 H         1 <0>         0.1576
     41 H14         0.1834   -3.5896   -1.1209 H         1 <0>         0.1388
     42 H15         2.1714   -2.5835   -0.0750 H         1 <0>         0.1384
     43 H16         2.0148   -0.3802    1.0098 H         1 <0>         0.1439
@<TRIPOS>BOND
     1    1    2 2
     2    1   28 1
     3    1   29 1
     4    2    3 1
     5    2   30 1
     6    3    4 1
     7    3   31 1
     8    3   32 1
     9    4   12 1
    10    4    5 1
    11    5   10 ar
    12    5    6 ar
    13    6    7 ar
    14    6   33 1
    15    7    8 ar
    16    7   34 1
    17    8    9 ar
    18    8   35 1
    19    9   10 ar
    20    9   36 1
    21   10   11 1
    22   11   12 2
    23   12   13 1
    24   13   14 1
    25   14   15 1
    26   14   37 1
    27   14   38 1
    28   15   16 2
    29   15   17 am
    30   17   18 1
    31   17   39 1
    32   18   23 ar
    33   18   19 ar
    34   19   20 ar
    35   19   40 1
    36   20   21 ar
    37   20   41 1
    38   21   22 ar
    39   21   42 1
    40   22   23 ar
    41   22   43 1
    42   23   24 1
    43   24   25 1
    44   24   26 1
    45   24   27 1
@<TRIPOS>MOLECULE
ZINC24959124
   57    61     0     0     0
SMALL
USER_CHARGES
(E)-N-(2-adamantyl)-3-[4-[(2-methylthiazol-4-yl)methoxy]phenyl]prop-2-enamide
@<TRIPOS>ATOM
      1 C1          8.2941   -1.9083   13.2393 C.3       1 <0>        -0.0706
      2 C2          7.3869   -0.7476   12.9217 C.2       1 <0>         0.1004
      3 N1          6.8134   -0.4367   11.7823 N.2       1 <0>        -0.5083
      4 C3          6.0400    0.6227   11.6691 C.2       1 <0>         0.0465
      5 C4          5.8479    1.4013   12.7644 C.2       1 <0>        -0.1820
      6 S1          6.8313    0.5211   13.9693 S.3       1 <0>         0.0442
      7 C5          5.3887    0.9661   10.3542 C.3       1 <0>         0.1350
      8 O1          4.6091    2.1541   10.5047 O.3       1 <0>        -0.3101
      9 C6          3.9518    2.6033    9.4052 C.ar      1 <0>         0.1466
     10 C7          3.1756    3.7539    9.4840 C.ar      1 <0>        -0.1517
     11 C8          2.5078    4.2141    8.3717 C.ar      1 <0>        -0.0522
     12 C9          2.6109    3.5211    7.1600 C.ar      1 <0>        -0.1148
     13 C10         3.3886    2.3596    7.0875 C.ar      1 <0>        -0.0572
     14 C11         4.0575    1.9113    8.2041 C.ar      1 <0>        -0.2107
     15 C12         1.8999    4.0080    5.9691 C.2       1 <0>        -0.0121
     16 C13         2.0009    3.3379    4.8017 C.2       1 <0>        -0.2251
     17 C14         1.2935    3.8224    3.6168 C.2       1 <0>         0.5494
     18 O2          0.6137    4.8299    3.6834 O.2       1 <0>        -0.5508
     19 N2          1.3943    3.1533    2.4512 N.am      1 <0>        -0.7320
     20 C15         0.6858    3.6387    1.2644 C.3       1 <0>         0.1611
     21 C16         1.4019    3.1452    0.0056 C.3       1 <0>        -0.0913
     22 C17         1.4227    1.6154   -0.0028 C.3       1 <0>        -0.1081
     23 C18        -0.0127    1.0858    0.0080 C.3       1 <0>        -0.0871
     24 C19        -0.7527    1.5927   -1.2315 C.3       1 <0>        -0.1090
     25 C20        -0.7734    3.1225   -1.2231 C.3       1 <0>        -0.0883
     26 C21         0.6619    3.6521   -1.2340 C.3       1 <0>        -0.1066
     27 C22        -1.4896    3.6159    0.0357 C.3       1 <0>        -0.1078
     28 C23        -0.7496    3.1091    1.2752 C.3       1 <0>        -0.0941
     29 C24        -0.7288    1.5792    1.2668 C.3       1 <0>        -0.1062
     30 H1          8.4372   -2.5196   12.3361 H         1 <0>         0.0972
     31 H2          7.8396   -2.5232   14.0300 H         1 <0>         0.0931
     32 H3          9.2676   -1.5292   13.5836 H         1 <0>         0.0931
     33 H4          5.2622    2.3017   12.8767 H         1 <0>         0.2024
     34 H5          6.1650    1.1310    9.5925 H         1 <0>         0.0853
     35 H6          4.7372    0.1373   10.0402 H         1 <0>         0.0853
     36 H7          3.0968    4.2880   10.4195 H         1 <0>         0.1363
     37 H8          1.9051    5.1081    8.4340 H         1 <0>         0.1373
     38 H9          3.4675    1.8186    6.1561 H         1 <0>         0.1311
     39 H10         4.6614    1.0177    8.1482 H         1 <0>         0.1331
     40 H11         1.2855    4.9185    6.0293 H         1 <0>         0.1387
     41 H12         2.6152    2.4274    4.7415 H         1 <0>         0.1283
     42 H13         2.0085    2.2428    2.3910 H         1 <0>         0.4156
     43 H14         0.6937    4.7378    1.3090 H         1 <0>         0.0861
     44 H15         2.4339    3.5259   -0.0022 H         1 <0>         0.0758
     45 H16         1.9376    1.2607   -0.9078 H         1 <0>         0.0678
     46 H17         1.9547    1.2510    0.8884 H         1 <0>         0.0595
     47 H18         0.0022   -0.0141    0.0019 H         1 <0>         0.0703
     48 H19        -0.2379    1.2379   -2.1365 H         1 <0>         0.0623
     49 H20        -1.7847    1.2120   -1.2237 H         1 <0>         0.0625
     50 H21        -1.3053    3.4869   -2.1143 H         1 <0>         0.0720
     51 H22         0.6470    4.7520   -1.2279 H         1 <0>         0.0654
     52 H23         1.1768    3.2974   -2.1390 H         1 <0>         0.0680
     53 H24        -1.5046    4.7158    0.0417 H         1 <0>         0.0642
     54 H25        -2.5216    3.2351    0.0435 H         1 <0>         0.0652
     55 H26        -1.2645    3.4639    2.1802 H         1 <0>         0.0737
     56 H27        -1.7608    1.1984    1.2746 H         1 <0>         0.0618
     57 H28        -0.1968    1.2148    2.1580 H         1 <0>         0.0615
@<TRIPOS>BOND
     1    1    2 1
     2    1   30 1
     3    1   31 1
     4    1   32 1
     5    2    6 1
     6    2    3 2
     7    3    4 1
     8    4    5 2
     9    4    7 1
    10    5    6 1
    11    5   33 1
    12    7    8 1
    13    7   34 1
    14    7   35 1
    15    8    9 1
    16    9   14 ar
    17    9   10 ar
    18   10   11 ar
    19   10   36 1
    20   11   12 ar
    21   11   37 1
    22   12   13 ar
    23   12   15 1
    24   13   14 ar
    25   13   38 1
    26   14   39 1
    27   15   16 2
    28   15   40 1
    29   16   17 1
    30   16   41 1
    31   17   18 2
    32   17   19 am
    33   19   20 1
    34   19   42 1
    35   20   28 1
    36   20   21 1
    37   20   43 1
    38   21   26 1
    39   21   22 1
    40   21   44 1
    41   22   23 1
    42   22   45 1
    43   22   46 1
    44   23   29 1
    45   23   24 1
    46   23   47 1
    47   24   25 1
    48   24   48 1
    49   24   49 1
    50   25   26 1
    51   25   27 1
    52   25   50 1
    53   26   51 1
    54   26   52 1
    55   27   28 1
    56   27   53 1
    57   27   54 1
    58   28   29 1
    59   28   55 1
    60   29   56 1
    61   29   57 1
@<TRIPOS>MOLECULE
ZINC35214415
   64    65     0     0     0
SMALL
USER_CHARGES

@<TRIPOS>ATOM
      1 C1         -3.3383    5.6558    8.5083 C.3       1 <0>        -0.1538
      2 C2         -4.4347    4.6578    8.8865 C.3       1 <0>        -0.1317
      3 C3         -4.0339    3.2578    8.4174 C.3       1 <0>         0.1432
      4 H1         -3.8167    3.2807    7.3495 H         1 <0>         0.0903
      5 C4         -5.1824    2.2826    8.6834 C.3       1 <0>        -0.1639
      6 N1         -2.8424    2.8201    9.1488 N.am      1 <0>        -0.7174
      7 C5         -2.0176    1.9027    8.6060 C.2       1 <0>         0.5116
      8 O1         -2.2619    1.4395    7.5121 O.2       1 <0>        -0.5067
      9 C6         -0.7919    1.4525    9.3583 C.3       1 <0>         0.1067
     10 H2         -1.0213    0.5358    9.9016 H         1 <0>         0.1308
     11 C7         -0.3778    2.5592   10.3724 C.3       1 <0>        -0.0828
     12 S1          0.5487    3.6585    9.2092 S.3       1 <0>        -0.2489
     13 C8          1.1465    2.3387    8.0703 C.3       1 <0>         0.2066
     14 H3          2.1933    2.1063    8.2660 H         1 <0>         0.1109
     15 N2          0.2860    1.1915    8.4086 N.am      1 <0>        -0.5922
     16 C9          0.4835   -0.0286    7.8710 C.2       1 <0>         0.5842
     17 O2          1.4529   -0.2327    7.1667 O.2       1 <0>        -0.4998
     18 C10        -0.4791   -1.1186    8.1378 C.ar      1 <0>        -0.1294
     19 C11        -1.4841   -1.4080    7.2135 C.ar      1 <0>        -0.0503
     20 C12        -2.3788   -2.4268    7.4684 C.ar      1 <0>        -0.1156
     21 C13        -2.2817   -3.1605    8.6374 C.ar      1 <0>        -0.0502
     22 C14        -1.2881   -2.8784    9.5580 C.ar      1 <0>        -0.1247
     23 C15        -0.3832   -1.8664    9.3124 C.ar      1 <0>        -0.0933
     24 C16        -3.2628   -4.2716    8.9094 C.3       1 <0>        -0.0328
     25 C17        -3.1634   -5.3223    7.8017 C.3       1 <0>        -0.1403
     26 C18        -2.9391   -4.9192   10.2573 C.3       1 <0>        -0.1457
     27 C19        -4.6821   -3.7012    8.9454 C.3       1 <0>        -0.1385
     28 C20         0.9508    2.7546    6.6110 C.3       1 <0>        -0.0626
     29 C21        -0.4740    3.2770    6.4162 C.3       1 <0>        -0.1699
     30 C22         1.9511    3.8566    6.2562 C.3       1 <0>        -0.1405
     31 C23         1.1797    1.5460    5.7012 C.3       1 <0>        -0.1321
     32 H4         -3.2074    5.6588    7.4262 H         1 <0>         0.0558
     33 H5         -3.6238    6.6532    8.8425 H         1 <0>         0.0554
     34 H6         -2.4027    5.3662    8.9867 H         1 <0>         0.0586
     35 H7         -4.5656    4.6548    9.9686 H         1 <0>         0.0664
     36 H8         -5.3703    4.9474    8.4081 H         1 <0>         0.0786
     37 H9         -6.0690    2.6082    8.1392 H         1 <0>         0.0656
     38 H10        -4.8969    1.2851    8.3492 H         1 <0>         0.0610
     39 H11        -5.3996    2.2596    9.7513 H         1 <0>         0.0558
     40 H12        -2.6470    3.1906   10.0237 H         1 <0>         0.3953
     41 H13        -1.2476    3.0632   10.7938 H         1 <0>         0.1255
     42 H14         0.2711    2.1646   11.1543 H         1 <0>         0.1155
     43 H15        -1.5614   -0.8356    6.3010 H         1 <0>         0.1281
     44 H16        -3.1569   -2.6518    6.7541 H         1 <0>         0.1260
     45 H17        -1.2179   -3.4547   10.4687 H         1 <0>         0.1323
     46 H18         0.3949   -1.6504   10.0295 H         1 <0>         0.1236
     47 H19        -2.1523   -5.7286    7.7761 H         1 <0>         0.0576
     48 H20        -3.8730   -6.1259    7.9985 H         1 <0>         0.0605
     49 H21        -3.3940   -4.8609    6.8415 H         1 <0>         0.0580
     50 H22        -3.0100   -4.1707   11.0464 H         1 <0>         0.0588
     51 H23        -3.6488   -5.7228   10.4540 H         1 <0>         0.0602
     52 H24        -1.9280   -5.3255   10.2316 H         1 <0>         0.0597
     53 H25        -4.9127   -3.2398    7.9852 H         1 <0>         0.0577
     54 H26        -5.3917   -4.5048    9.1421 H         1 <0>         0.0602
     55 H27        -4.7529   -2.9527    9.7345 H         1 <0>         0.0559
     56 H28        -0.7677    3.8643    7.2862 H         1 <0>         0.0742
     57 H29        -0.5126    3.9035    5.5251 H         1 <0>         0.0487
     58 H30        -1.1567    2.4355    6.2987 H         1 <0>         0.0841
     59 H31         2.9661    3.4844    6.3950 H         1 <0>         0.0574
     60 H32         1.8117    4.1529    5.2166 H         1 <0>         0.0641
     61 H33         1.7880    4.7177    6.9044 H         1 <0>         0.0580
     62 H34         0.3962    0.8080    5.8734 H         1 <0>         0.0586
     63 H35         1.1550    1.8656    4.6594 H         1 <0>         0.0460
     64 H36         2.1508    1.1033    5.9225 H         1 <0>         0.0754
@<TRIPOS>BOND
     1    1    2 1
     2    1   32 1
     3    1   33 1
     4    1   34 1
     5    2    3 1
     6    2   35 1
     7    2   36 1
     8    3    4 1
     9    3    5 1
    10    3    6 1
    11    5   37 1
    12    5   38 1
    13    5   39 1
    14    6    7 am
    15    6   40 1
    16    7    8 2
    17    7    9 1
    18    9   10 1
    19    9   15 1
    20    9   11 1
    21   11   12 1
    22   11   41 1
    23   11   42 1
    24   12   13 1
    25   13   14 1
    26   13   15 1
    27   13   28 1
    28   15   16 am
    29   16   17 2
    30   16   18 1
    31   18   23 ar
    32   18   19 ar
    33   19   20 ar
    34   19   43 1
    35   20   21 ar
    36   20   44 1
    37   21   22 ar
    38   21   24 1
    39   22   23 ar
    40   22   45 1
    41   23   46 1
    42   24   25 1
    43   24   26 1
    44   24   27 1
    45   25   47 1
    46   25   48 1
    47   25   49 1
    48   26   50 1
    49   26   51 1
    50   26   52 1
    51   27   53 1
    52   27   54 1
    53   27   55 1
    54   28   29 1
    55   28   30 1
    56   28   31 1
    57   29   56 1
    58   29   57 1
    59   29   58 1
    60   30   59 1
    61   30   60 1
    62   30   61 1
    63   31   62 1
    64   31   63 1
    65   31   64 1
@<TRIPOS>MOLECULE
ZINC31326379
   45    48     0     0     0
SMALL
USER_CHARGES

@<TRIPOS>ATOM
      1 C1          0.2861    1.6933   -0.7958 C.3       1 <0>        -0.1543
      2 C2          0.0671    0.2187   -1.1400 C.3       1 <0>         0.0517
      3 O1          1.2427   -0.5259   -0.8154 O.3       1 <0>        -0.3113
      4 C3          1.2143   -1.8632   -1.0616 C.ar      1 <0>         0.1656
      5 C4          0.0795   -2.4430   -1.6095 C.ar      1 <0>        -0.2184
      6 C5          0.0493   -3.8007   -1.8595 C.ar      1 <0>        -0.0213
      7 C6          1.1561   -4.5859   -1.5625 C.ar      1 <0>        -0.1599
      8 C7          2.2922   -4.0041   -1.0141 C.ar      1 <0>        -0.0256
      9 C8          2.3221   -2.6453   -0.7698 C.ar      1 <0>        -0.1599
     10 S1          1.1188   -6.3186   -1.8804 S.3       1 <0>        -0.1255
     11 C9          1.8905   -6.4818   -3.5139 C.3       1 <0>        -0.0377
     12 H1          2.8574   -5.9786   -3.5109 H         1 <0>         0.1359
     13 C10         0.9868   -5.8437   -4.5709 C.3       1 <0>        -0.1441
     14 C11         2.0848   -7.9415   -3.8341 C.2       1 <0>         0.4387
     15 N1          1.2802   -8.8659   -3.2493 N.am      1 <0>        -0.6261
     16 H2          0.5906   -8.5740   -2.6328 H         1 <0>         0.4240
     17 C12         1.4205  -10.1790   -3.5086 C.2       1 <0>         0.5515
     18 O2          0.6897  -10.9964   -2.9757 O.2       1 <0>        -0.4965
     19 C13         2.4399  -10.6012   -4.4197 C.2       1 <0>        -0.2441
     20 C14         2.7856  -11.9490   -4.8578 C.2       1 <0>         0.0225
     21 C15         3.8042  -12.1057   -5.7403 C.2       1 <0>        -0.1683
     22 S2          4.3578  -10.4368   -6.0321 S.3       1 <0>         0.1738
     23 C16         3.2225   -9.5757   -4.9750 C.2       1 <0>         0.1106
     24 N2          3.0207   -8.2955   -4.6735 N.2       1 <0>        -0.4816
     25 C17         2.0414  -13.1206   -4.3502 C.2       1 <0>        -0.1091
     26 C18         1.4780  -14.1543   -5.0496 C.2       1 <0>        -0.1439
     27 C19         0.8250  -15.1480   -4.3513 C.2       1 <0>        -0.1619
     28 C20         0.7605  -15.0722   -2.9982 C.2       1 <0>        -0.1883
     29 S3          1.6497  -13.5606   -2.6648 S.3       1 <0>         0.1150
     30 H3          0.4951    1.7906    0.2695 H         1 <0>         0.0681
     31 H4          1.1298    2.0786   -1.3683 H         1 <0>         0.0680
     32 H5         -0.6107    2.2613   -1.0435 H         1 <0>         0.0814
     33 H6         -0.7767   -0.1666   -0.5675 H         1 <0>         0.0658
     34 H7         -0.1420    0.1214   -2.2054 H         1 <0>         0.0656
     35 H8         -0.7809   -1.8323   -1.8404 H         1 <0>         0.1361
     36 H9         -0.8346   -4.2520   -2.2855 H         1 <0>         0.1375
     37 H10         3.1532   -4.6137   -0.7828 H         1 <0>         0.1411
     38 H11         3.2067   -2.1922   -0.3473 H         1 <0>         0.1398
     39 H12         1.3981   -6.0326   -5.5625 H         1 <0>         0.0801
     40 H13        -0.0119   -6.2752   -4.5035 H         1 <0>         0.0742
     41 H14         0.9305   -4.7687   -4.3997 H         1 <0>         0.0794
     42 H15         4.1878  -13.0221   -6.1640 H         1 <0>         0.2032
     43 H16         1.5435  -14.1904   -6.1270 H         1 <0>         0.1318
     44 H17         0.3703  -15.9760   -4.8748 H         1 <0>         0.1325
     45 H18         0.2951  -15.7537   -2.3015 H         1 <0>         0.1841
@<TRIPOS>BOND
     1    1    2 1
     2    1   30 1
     3    1   31 1
     4    1   32 1
     5    2    3 1
     6    2   33 1
     7    2   34 1
     8    3    4 1
     9    4    9 ar
    10    4    5 ar
    11    5    6 ar
    12    5   35 1
    13    6    7 ar
    14    6   36 1
    15    7    8 ar
    16    7   10 1
    17    8    9 ar
    18    8   37 1
    19    9   38 1
    20   10   11 1
    21   11   12 1
    22   11   13 1
    23   11   14 1
    24   13   39 1
    25   13   40 1
    26   13   41 1
    27   14   24 2
    28   14   15 1
    29   15   16 1
    30   15   17 am
    31   17   18 2
    32   17   19 1
    33   19   23 2
    34   19   20 1
    35   20   21 2
    36   20   25 1
    37   21   22 1
    38   21   42 1
    39   22   23 1
    40   23   24 1
    41   25   29 1
    42   25   26 2
    43   26   27 1
    44   26   43 1
    45   27   28 2
    46   27   44 1
    47   28   29 1
    48   28   45 1
@<TRIPOS>MOLECULE
ZINC07986473
   59    61     0     0     0
SMALL
USER_CHARGES
4-methyl-N-[2-methyl-1-[(5-methyl-4,5,6,7-tetrahydrobenzothiophen-2-yl)carbonylaminocarbamoyl]propyl]-benzamide
@<TRIPOS>ATOM
      1 C1          8.1573   -2.0865   -0.4141 C.3       1 <0>        -0.1222
      2 C2          6.9672   -1.1626   -0.4451 C.ar      1 <0>        -0.0558
      3 C3          7.0840    0.0922   -1.0162 C.ar      1 <0>        -0.1299
      4 C4          5.9984    0.9429   -1.0479 C.ar      1 <0>        -0.0521
      5 C5          4.7800    0.5350   -0.5025 C.ar      1 <0>        -0.1446
      6 C6          4.6702   -0.7303    0.0764 C.ar      1 <0>        -0.0799
      7 C7          5.7623   -1.5731    0.0972 C.ar      1 <0>        -0.1289
      8 C8          3.6125    1.4415   -0.5325 C.2       1 <0>         0.5663
      9 O1          3.7125    2.5448   -1.0328 O.2       1 <0>        -0.5262
     10 N1          2.4375    1.0447   -0.0051 N.am      1 <0>        -0.7091
     11 C9          1.2806    1.9430   -0.0347 C.3       1 <0>         0.1467
     12 H1          1.2981    2.5277   -0.9545 H         1 <0>         0.1191
     13 C10         1.3354    2.8851    1.1696 C.3       1 <0>        -0.1013
     14 C11         1.4515    2.0634    2.4550 C.3       1 <0>        -0.1507
     15 C12         2.5503    3.8063    1.0416 C.3       1 <0>        -0.1389
     16 C13         0.0124    1.1309    0.0201 C.2       1 <0>         0.5167
     17 O2          0.0375   -0.0049    0.4448 O.2       1 <0>        -0.5290
     18 N2         -1.1487    1.6647   -0.4080 N.am      1 <0>        -0.5120
     19 N3         -2.3440    0.9477   -0.2656 N.am      1 <0>        -0.5186
     20 C14        -3.5051    1.4816   -0.6937 C.2       1 <0>         0.6128
     21 O3         -3.5153    2.5864   -1.2039 O.2       1 <0>        -0.5217
     22 C15        -4.7556    0.7314   -0.5447 C.2       1 <0>        -0.2493
     23 C16        -6.0392    1.0953   -0.9075 C.2       1 <0>        -0.0460
     24 C17        -7.0672    0.1997   -0.6619 C.2       1 <0>        -0.1423
     25 C18        -6.7255   -0.9801   -0.0645 C.2       1 <0>        -0.1455
     26 S1         -5.0203   -0.8871    0.1595 S.3       1 <0>         0.1499
     27 C19        -7.6442   -2.1020    0.3099 C.3       1 <0>        -0.0473
     28 C20        -9.0881   -1.5819    0.2624 C.3       1 <0>        -0.1102
     29 C21        -9.2960   -0.8260   -1.0530 C.3       1 <0>        -0.0937
     30 H2         -8.9387   -1.4370   -1.8819 H         1 <0>         0.0742
     31 C22        -8.5209    0.4917   -1.0251 C.3       1 <0>        -0.0530
     32 C23       -10.7862   -0.5350   -1.2417 C.3       1 <0>        -0.1489
     33 H3          8.7220   -1.9209    0.5034 H         1 <0>         0.0764
     34 H4          7.8153   -3.1209   -0.4487 H         1 <0>         0.0704
     35 H5          8.7955   -1.8859   -1.2747 H         1 <0>         0.0708
     36 H6          8.0273    0.4066   -1.4378 H         1 <0>         0.1309
     37 H7          6.0909    1.9221   -1.4939 H         1 <0>         0.1376
     38 H8          3.7315   -1.0502    0.5040 H         1 <0>         0.1266
     39 H9          5.6777   -2.5538    0.5415 H         1 <0>         0.1298
     40 H10         2.3577    0.1643    0.3942 H         1 <0>         0.4108
     41 H11         0.4262    3.4854    1.2030 H         1 <0>         0.0860
     42 H12         2.3607    1.4631    2.4216 H         1 <0>         0.0604
     43 H13         1.4906    2.7346    3.3130 H         1 <0>         0.0625
     44 H14         0.5860    1.4072    2.5461 H         1 <0>         0.0561
     45 H15         2.5258    4.3077    0.0741 H         1 <0>         0.0682
     46 H16         2.5272    4.5508    1.8374 H         1 <0>         0.0557
     47 H17         3.4635    3.2166    1.1223 H         1 <0>         0.0579
     48 H18        -1.1569    2.5453   -0.8146 H         1 <0>         0.4371
     49 H19        -2.3358    0.0671    0.1411 H         1 <0>         0.4323
     50 H20        -6.2347    2.0505   -1.3721 H         1 <0>         0.1474
     51 H21        -7.5266   -2.9240   -0.3962 H         1 <0>         0.0903
     52 H22        -7.4112   -2.4467    1.3174 H         1 <0>         0.0874
     53 H23        -9.7810   -2.4217    0.3147 H         1 <0>         0.0771
     54 H24        -9.2628   -0.9110    1.1035 H         1 <0>         0.0703
     55 H25        -8.5646    0.9621   -2.0074 H         1 <0>         0.0780
     56 H26        -8.9572    1.1565   -0.2797 H         1 <0>         0.0790
     57 H27       -11.1455    0.0732   -0.4116 H         1 <0>         0.0569
     58 H28       -10.9356    0.0031   -2.1778 H         1 <0>         0.0574
     59 H29       -11.3390   -1.4740   -1.2701 H         1 <0>         0.0582
@<TRIPOS>BOND
     1    1    2 1
     2    1   33 1
     3    1   34 1
     4    1   35 1
     5    2    7 ar
     6    2    3 ar
     7    3    4 ar
     8    3   36 1
     9    4    5 ar
    10    4   37 1
    11    5    6 ar
    12    5    8 1
    13    6    7 ar
    14    6   38 1
    15    7   39 1
    16    8    9 2
    17    8   10 am
    18   10   11 1
    19   10   40 1
    20   11   12 1
    21   11   13 1
    22   11   16 1
    23   13   14 1
    24   13   15 1
    25   13   41 1
    26   14   42 1
    27   14   43 1
    28   14   44 1
    29   15   45 1
    30   15   46 1
    31   15   47 1
    32   16   17 2
    33   16   18 am
    34   18   19 1
    35   18   48 1
    36   19   20 am
    37   19   49 1
    38   20   21 2
    39   20   22 1
    40   22   26 1
    41   22   23 2
    42   23   24 1
    43   23   50 1
    44   24   31 1
    45   24   25 2
    46   25   26 1
    47   25   27 1
    48   27   28 1
    49   27   51 1
    50   27   52 1
    51   28   29 1
    52   28   53 1
    53   28   54 1
    54   29   30 1
    55   29   31 1
    56   29   32 1
    57   31   55 1
    58   31   56 1
    59   32   57 1
    60   32   58 1
    61   32   59 1
@<TRIPOS>MOLECULE
ZINC09910164
   55    58     0     0     0
SMALL
USER_CHARGES
2-[2-[(4,6-dimethylpyrimidin-2-yl)sulfanylmethyl]benzoyl]amino-4,5,6,7-tetrahydrobenzothiophene-3-carboxamide
@<TRIPOS>ATOM
      1 C1          3.3525    7.6136   -2.0468 C.3       1 <0>        -0.1065
      2 C2          3.5554    7.2161   -0.6074 C.ar      1 <0>         0.1929
      3 C3          3.6912    8.1843    0.3752 C.ar      1 <0>        -0.2429
      4 C4          3.8762    7.7762    1.6870 C.ar      1 <0>         0.1934
      5 N1          3.9174    6.4829    1.9607 N.ar      1 <0>        -0.5117
      6 C5          3.7841    5.5820    0.9975 C.ar      1 <0>         0.3095
      7 N2          3.6113    5.9392   -0.2673 N.ar      1 <0>        -0.5301
      8 S1          3.8452    3.8693    1.4070 S.3       1 <0>         0.0369
      9 C6          3.6162    3.1450   -0.2358 C.3       1 <0>        -0.0813
     10 C7          3.6343    1.6419   -0.1290 C.ar      1 <0>        -0.0145
     11 C8          4.7974    0.9446   -0.3835 C.ar      1 <0>        -0.1077
     12 C9          4.8157   -0.4353   -0.2864 C.ar      1 <0>        -0.0815
     13 C10         3.6693   -1.1256    0.0662 C.ar      1 <0>        -0.1170
     14 C11         2.5012   -0.4405    0.3285 C.ar      1 <0>        -0.0821
     15 C12         2.4745    0.9518    0.2271 C.ar      1 <0>        -0.1250
     16 C13         1.2251    1.6921    0.5017 C.2       1 <0>         0.5503
     17 O1          1.2305    2.9076    0.5204 O.2       1 <0>        -0.4747
     18 N3          0.0799    1.0196    0.7313 N.am      1 <0>        -0.6164
     19 C14        -1.0924    1.7137    0.9830 C.2       1 <0>         0.0768
     20 C15        -2.3602    1.2048    1.2289 C.2       1 <0>        -0.2306
     21 C16        -3.4307    2.1571    1.4703 C.2       1 <0>        -0.0648
     22 C17        -3.0674    3.4570    1.4161 C.2       1 <0>        -0.2104
     23 S2         -1.3335    3.4278    1.0598 S.3       1 <0>         0.2340
     24 C18        -3.9498    4.6505    1.6155 C.3       1 <0>        -0.0357
     25 C19        -5.4123    4.1917    1.5223 C.3       1 <0>        -0.1138
     26 C20        -5.5952    2.9462    2.3945 C.3       1 <0>        -0.1195
     27 C21        -4.8719    1.7566    1.7606 C.3       1 <0>        -0.0610
     28 C22        -2.6089   -0.2399    1.2485 C.2       1 <0>         0.5846
     29 O2         -2.5034   -0.8615    2.2896 O.2       1 <0>        -0.5330
     30 N4         -2.9544   -0.8797    0.1137 N.am      1 <0>        -0.8482
     31 C23         4.0281    8.7938    2.7880 C.3       1 <0>        -0.1073
     32 H1          4.3213    7.7116   -2.5367 H         1 <0>         0.0861
     33 H2          2.7639    6.8499   -2.5552 H         1 <0>         0.0823
     34 H3          2.8256    8.5668   -2.0897 H         1 <0>         0.0822
     35 H4          3.6541    9.2341    0.1241 H         1 <0>         0.1469
     36 H5          4.4220    3.4723   -0.8928 H         1 <0>         0.1002
     37 H6          2.6593    3.4686   -0.6454 H         1 <0>         0.1316
     38 H7          5.6957    1.4773   -0.6588 H         1 <0>         0.1379
     39 H8          5.7288   -0.9762   -0.4863 H         1 <0>         0.1360
     40 H9          3.6904   -2.2028    0.1406 H         1 <0>         0.1361
     41 H10         1.6084   -0.9800    0.6079 H         1 <0>         0.1274
     42 H11         0.0757    0.0497    0.7163 H         1 <0>         0.4171
     43 H12        -3.7631    5.0851    2.5975 H         1 <0>         0.0823
     44 H13        -3.7466    5.3907    0.8417 H         1 <0>         0.0801
     45 H14        -6.0679    4.9864    1.8783 H         1 <0>         0.0737
     46 H15        -5.6554    3.9540    0.4867 H         1 <0>         0.0679
     47 H16        -5.1827    3.1345    3.3857 H         1 <0>         0.0676
     48 H17        -6.6574    2.7180    2.4817 H         1 <0>         0.0703
     49 H18        -4.8848    0.9119    2.4493 H         1 <0>         0.0750
     50 H19        -5.3703    1.4785    0.8319 H         1 <0>         0.0763
     51 H20        -3.0385   -0.3843   -0.7160 H         1 <0>         0.4035
     52 H21        -3.1190   -1.8355    0.1267 H         1 <0>         0.4031
     53 H22         5.0825    9.0414    2.9110 H         1 <0>         0.0870
     54 H23         3.4711    9.6945    2.5297 H         1 <0>         0.0826
     55 H24         3.6406    8.3817    3.7197 H         1 <0>         0.0840
@<TRIPOS>BOND
     1    1    2 1
     2    1   32 1
     3    1   33 1
     4    1   34 1
     5    2    7 ar
     6    2    3 ar
     7    3    4 ar
     8    3   35 1
     9    4    5 ar
    10    4   31 1
    11    5    6 ar
    12    6    7 ar
    13    6    8 1
    14    8    9 1
    15    9   10 1
    16    9   36 1
    17    9   37 1
    18   10   15 ar
    19   10   11 ar
    20   11   12 ar
    21   11   38 1
    22   12   13 ar
    23   12   39 1
    24   13   14 ar
    25   13   40 1
    26   14   15 ar
    27   14   41 1
    28   15   16 1
    29   16   17 2
    30   16   18 am
    31   18   19 1
    32   18   42 1
    33   19   23 1
    34   19   20 2
    35   20   21 1
    36   20   28 1
    37   21   27 1
    38   21   22 2
    39   22   23 1
    40   22   24 1
    41   24   25 1
    42   24   43 1
    43   24   44 1
    44   25   26 1
    45   25   45 1
    46   25   46 1
    47   26   27 1
    48   26   47 1
    49   26   48 1
    50   27   49 1
    51   27   50 1
    52   28   29 2
    53   28   30 am
    54   30   51 1
    55   30   52 1
    56   31   53 1
    57   31   54 1
    58   31   55 1
@<TRIPOS>MOLECULE
ZINC20591272
   61    65     0     0     0
SMALL
USER_CHARGES
4-benzhydryl-N-(3-carbamoyl-5,6-dihydro-4H-cyclopenta[d]thiophen-2-yl)piperazine-1-carboxamide
@<TRIPOS>ATOM
      1 C1          3.1176   -0.7116   -2.0330 C.ar      1 <0>        -0.1167
      2 C2          3.0321   -0.7505   -0.6539 C.ar      1 <0>        -0.1202
      3 C3          1.8102   -0.5745   -0.0319 C.ar      1 <0>        -0.1127
      4 C4          0.6737   -0.3599   -0.7891 C.ar      1 <0>        -0.0787
      5 C5          0.7583   -0.3266   -2.1684 C.ar      1 <0>        -0.0890
      6 C6          1.9811   -0.4974   -2.7902 C.ar      1 <0>        -0.1229
      7 C7         -0.6584   -0.1684   -0.1110 C.3       1 <0>         0.1697
      8 C8         -1.0286    1.2923   -0.1343 C.ar      1 <0>        -0.0790
      9 C9         -1.4735    1.8739   -1.3067 C.ar      1 <0>        -0.0908
     10 C10        -1.8176    3.2126   -1.3269 C.ar      1 <0>        -0.1227
     11 C11        -1.7073    3.9720   -0.1771 C.ar      1 <0>        -0.1168
     12 C12        -1.2570    3.3917    0.9940 C.ar      1 <0>        -0.1199
     13 C13        -0.9178    2.0518    1.0154 C.ar      1 <0>        -0.1129
     14 N1         -1.6846   -0.9449   -0.8195 N.3       1 <0>        -0.5262
     15 C14        -3.0167   -0.6989   -0.2512 C.3       1 <0>         0.0390
     16 C15        -4.0751   -1.3799   -1.1255 C.3       1 <0>         0.1150
     17 N2         -3.7151   -2.7981   -1.2754 N.am      1 <0>        -0.6175
     18 C16        -2.3491   -3.1271   -1.7103 C.3       1 <0>         0.1340
     19 C17        -1.3587   -2.3773   -0.8130 C.3       1 <0>         0.0401
     20 C18        -4.6133   -3.7703   -1.0215 C.2       1 <0>         0.7070
     21 O1         -4.3286   -4.9324   -1.2376 O.2       1 <0>        -0.5544
     22 N3         -5.8270   -3.4544   -0.5280 N.am      1 <0>        -0.6458
     23 C19        -6.7130   -4.4591   -0.1703 C.2       1 <0>         0.1010
     24 C20        -7.9883   -4.3353    0.3539 C.2       1 <0>        -0.2267
     25 C21        -8.7236   -5.5660    0.6441 C.2       1 <0>        -0.0931
     26 C22        -8.0612   -6.7045    0.3725 C.2       1 <0>        -0.2429
     27 S1         -6.4903   -6.1729   -0.2635 S.3       1 <0>         0.2583
     28 C23        -8.8790   -7.9247    0.6991 C.3       1 <0>        -0.0354
     29 C24       -10.3279   -7.4023    0.8155 C.3       1 <0>        -0.1123
     30 C25       -10.0999   -5.9279    1.2041 C.3       1 <0>        -0.0561
     31 C26        -8.5817   -3.0186    0.6051 C.2       1 <0>         0.5851
     32 O2         -9.2288   -2.4666   -0.2656 O.2       1 <0>        -0.5445
     33 N4         -8.4109   -2.4194    1.8002 N.am      1 <0>        -0.8714
     34 H1          4.0723   -0.8488   -2.5190 H         1 <0>         0.1210
     35 H2          3.9199   -0.9182   -0.0623 H         1 <0>         0.1217
     36 H3          1.7434   -0.6049    1.0456 H         1 <0>         0.1180
     37 H4         -0.1303   -0.1634   -2.7601 H         1 <0>         0.1288
     38 H5          2.0478   -0.4673   -3.8677 H         1 <0>         0.1220
     39 H6         -0.6111   -0.5309    0.9265 H         1 <0>         0.0576
     40 H7         -1.5558    1.2816   -2.2060 H         1 <0>         0.1289
     41 H8         -2.1691    3.6661   -2.2419 H         1 <0>         0.1222
     42 H9         -1.9726    5.0188   -0.1938 H         1 <0>         0.1211
     43 H10        -1.1704    3.9851    1.8922 H         1 <0>         0.1218
     44 H11        -0.5660    1.5984    1.9303 H         1 <0>         0.1183
     45 H12        -3.0619   -1.1096    0.7683 H         1 <0>         0.0413
     46 H13        -3.2074    0.3840   -0.2190 H         1 <0>         0.0976
     47 H14        -5.0603   -1.2917   -0.6442 H         1 <0>         0.0762
     48 H15        -4.1040   -0.8938   -2.1118 H         1 <0>         0.0886
     49 H16        -2.1877   -4.2117   -1.6229 H         1 <0>         0.1025
     50 H17        -2.2136   -2.8195   -2.7577 H         1 <0>         0.0806
     51 H18        -0.3363   -2.5224   -1.1920 H         1 <0>         0.0973
     52 H19        -1.4273   -2.7643    0.2144 H         1 <0>         0.0416
     53 H20        -6.1147   -2.3994   -0.4090 H         1 <0>         0.4358
     54 H21        -8.7738   -8.6636   -0.1089 H         1 <0>         0.0777
     55 H22        -8.5242   -8.3618    1.6441 H         1 <0>         0.0827
     56 H23       -10.8393   -7.5212   -0.1511 H         1 <0>         0.0775
     57 H24       -10.8635   -7.9755    1.5866 H         1 <0>         0.0838
     58 H25       -10.0977   -5.7960    2.2962 H         1 <0>         0.0795
     59 H26       -10.8616   -5.2722    0.7571 H         1 <0>         0.0728
     60 H27        -8.8562   -1.4314    1.9887 H         1 <0>         0.4211
     61 H28        -7.8262   -2.9184    2.5871 H         1 <0>         0.4213
@<TRIPOS>BOND
     1    1    6 ar
     2    1    2 ar
     3    1   34 1
     4    2    3 ar
     5    2   35 1
     6    3    4 ar
     7    3   36 1
     8    4    5 ar
     9    4    7 1
    10    5    6 ar
    11    5   37 1
    12    6   38 1
    13    7    8 1
    14    7   14 1
    15    7   39 1
    16    8   13 ar
    17    8    9 ar
    18    9   10 ar
    19    9   40 1
    20   10   11 ar
    21   10   41 1
    22   11   12 ar
    23   11   42 1
    24   12   13 ar
    25   12   43 1
    26   13   44 1
    27   14   19 1
    28   14   15 1
    29   15   16 1
    30   15   45 1
    31   15   46 1
    32   16   17 1
    33   16   47 1
    34   16   48 1
    35   17   18 1
    36   17   20 am
    37   18   19 1
    38   18   49 1
    39   18   50 1
    40   19   51 1
    41   19   52 1
    42   20   21 2
    43   20   22 am
    44   22   23 1
    45   22   53 1
    46   23   27 1
    47   23   24 2
    48   24   25 1
    49   24   31 1
    50   25   30 1
    51   25   26 2
    52   26   27 1
    53   26   28 1
    54   28   29 1
    55   28   54 1
    56   28   55 1
    57   29   30 1
    58   29   56 1
    59   29   57 1
    60   30   58 1
    61   30   59 1
    62   31   32 2
    63   31   33 am
    64   33   60 1
    65   33   61 1
@<TRIPOS>MOLECULE
ZINC12571147
   47    48     0     0     0
SMALL
USER_CHARGES

@<TRIPOS>ATOM
      1 C1         -0.0184    1.5028    0.0103 C.3       1 <0>        -0.1128
      2 C2          0.0021   -0.0041    0.0020 C.ar      1 <0>        -0.1131
      3 C3          0.0057   -0.6876   -1.2000 C.ar      1 <0>        -0.0651
      4 C4          0.0240   -2.0689   -1.2108 C.ar      1 <0>        -0.2007
      5 C5          0.0391   -2.7708   -0.0143 C.ar      1 <0>         0.1467
      6 C6          0.0359   -2.0827    1.1910 C.ar      1 <0>        -0.1162
      7 C7          0.0229   -0.7004    1.1961 C.ar      1 <0>        -0.0525
      8 Br1         0.0559   -3.0351    2.8246 Br        1 <0>        -0.0248
      9 O1          0.0567   -4.1298   -0.0224 O.3       1 <0>        -0.2737
     10 C8          0.0584   -4.7710   -1.2995 C.3       1 <0>         0.0449
     11 C9          0.0787   -6.2660   -1.1109 C.2       1 <0>         0.4872
     12 O2          0.0905   -6.7360    0.0066 O.2       1 <0>        -0.3693
     13 N1          0.0838   -7.0806   -2.1846 N.am      1 <0>        -0.6449
     14 C10         0.1019   -8.4177   -2.0160 C.2       1 <0>         0.5155
     15 S1          0.1186   -9.0813   -0.4380 S.2       1 <0>        -0.4532
     16 N2          0.1070   -9.2323   -3.0897 N.pl3     1 <0>        -0.4573
     17 N3          0.0934   -8.6892   -4.3811 N.am      1 <0>        -0.5545
     18 C11         0.0984   -9.5038   -5.4548 C.2       1 <0>         0.5237
     19 O3          0.1148  -10.7070   -5.3031 O.2       1 <0>        -0.5114
     20 C12         0.0838   -8.9197   -6.8439 C.3       1 <0>        -0.0938
     21 C13        -1.1775   -8.0734   -7.0280 C.3       1 <0>        -0.1144
     22 C14        -1.1923   -7.4803   -8.4383 C.3       1 <0>        -0.1181
     23 C15        -1.1829   -8.6122   -9.4677 C.3       1 <0>        -0.1253
     24 C16         0.0783   -9.4585   -9.2836 C.3       1 <0>        -0.1203
     25 C17         0.0932  -10.0516   -7.8733 C.3       1 <0>        -0.1017
     26 H1          1.0042    1.8801    0.0026 H         1 <0>         0.0732
     27 H2         -0.5455    1.8639   -0.8728 H         1 <0>         0.0694
     28 H3         -0.5286    1.8543    0.9071 H         1 <0>         0.0697
     29 H4         -0.0061   -0.1411   -2.1314 H         1 <0>         0.1337
     30 H5          0.0261   -2.6020   -2.1500 H         1 <0>         0.1357
     31 H6          0.0245   -0.1642    2.1335 H         1 <0>         0.1413
     32 H7         -0.8381   -4.4863   -1.8502 H         1 <0>         0.1013
     33 H8          0.9417   -4.4633   -1.8593 H         1 <0>         0.1014
     34 H9          0.0744   -6.7046   -3.0788 H         1 <0>         0.4029
     35 H10         0.1200  -10.1946   -2.9684 H         1 <0>         0.4587
     36 H11         0.0803   -7.7269   -4.5025 H         1 <0>         0.4180
     37 H12         0.9650   -8.2937   -6.9841 H         1 <0>         0.1078
     38 H13        -2.0587   -8.6993   -6.8878 H         1 <0>         0.0744
     39 H14        -1.1841   -7.2670   -6.2947 H         1 <0>         0.0643
     40 H15        -2.0908   -6.8773   -8.5695 H         1 <0>         0.0701
     41 H16        -0.3111   -6.8543   -8.5785 H         1 <0>         0.0671
     42 H17        -2.0642   -9.2381   -9.3275 H         1 <0>         0.0650
     43 H18        -1.1935   -8.1897  -10.4724 H         1 <0>         0.0669
     44 H19         0.0850  -10.2649  -10.0169 H         1 <0>         0.0707
     45 H20         0.9596   -8.8326   -9.4238 H         1 <0>         0.0651
     46 H21         0.9917  -10.6545   -7.7421 H         1 <0>         0.0741
     47 H22        -0.7881  -10.6775   -7.7331 H         1 <0>         0.0743
@<TRIPOS>BOND
     1    1    2 1
     2    1   26 1
     3    1   27 1
     4    1   28 1
     5    2    7 ar
     6    2    3 ar
     7    3    4 ar
     8    3   29 1
     9    4    5 ar
    10    4   30 1
    11    5    6 ar
    12    5    9 1
    13    6    7 ar
    14    6    8 1
    15    7   31 1
    16    9   10 1
    17   10   11 1
    18   10   32 1
    19   10   33 1
    20   11   12 2
    21   11   13 am
    22   13   14 1
    23   13   34 1
    24   14   15 2
    25   14   16 1
    26   16   17 1
    27   16   35 1
    28   17   18 am
    29   17   36 1
    30   18   19 2
    31   18   20 1
    32   20   25 1
    33   20   21 1
    34   20   37 1
    35   21   22 1
    36   21   38 1
    37   21   39 1
    38   22   23 1
    39   22   40 1
    40   22   41 1
    41   23   24 1
    42   23   42 1
    43   23   43 1
    44   24   25 1
    45   24   44 1
    46   24   45 1
    47   25   46 1
    48   25   47 1
@<TRIPOS>MOLECULE
ZINC45631069
   42    43     0     0     0
SMALL
USER_CHARGES

@<TRIPOS>ATOM
      1 C1         -0.0187    1.5258    0.0104 C.3       1 <0>        -0.1569
      2 C2          0.0021   -0.0041    0.0020 C.3       1 <0>        -0.1036
      3 C3          0.7421   -0.5109    1.2415 C.3       1 <0>        -0.1473
      4 C4         -1.4333   -0.5336    0.0129 C.3       1 <0>         0.2404
      5 H1         -1.4190   -1.6203    0.0965 H         1 <0>         0.1123
      6 C5         -2.1755    0.0508    1.1870 C.2       1 <0>        -0.1545
      7 C6         -2.4416   -0.5084    2.3928 C.2       1 <0>        -0.1393
      8 C7         -3.1465    0.2231    3.3301 C.2       1 <0>        -0.1562
      9 C8         -3.5510    1.4781    3.0158 C.2       1 <0>        -0.1689
     10 S1         -2.9256    1.6622    1.3538 S.3       1 <0>         0.0426
     11 N1         -2.1054   -0.1483   -1.2305 N.am      1 <0>        -0.7227
     12 C9         -1.9698   -0.9103   -2.3339 C.2       1 <0>         0.5198
     13 O1         -1.2914   -1.9150   -2.2975 O.2       1 <0>        -0.5017
     14 C10        -2.6612   -0.5139   -3.6130 C.3       1 <0>         0.0448
     15 O2         -2.3664   -1.4727   -4.6307 O.3       1 <0>        -0.2983
     16 C11        -2.9118   -1.2635   -5.8444 C.2       1 <0>         0.5241
     17 O3         -3.6182   -0.2939   -6.0338 O.2       1 <0>        -0.4648
     18 C12        -2.6503   -2.2147   -6.9467 C.ar      1 <0>         0.1688
     19 C13        -3.2127   -1.9891   -8.2002 C.ar      1 <0>        -0.1062
     20 C14        -2.9558   -2.8958   -9.2294 C.ar      1 <0>         0.2837
     21 C15        -2.1427   -3.9942   -8.9560 C.ar      1 <0>        -0.1314
     22 C16        -1.6196   -4.1497   -7.6818 C.ar      1 <0>         0.2267
     23 N2         -1.8761   -3.2742   -6.7325 N.ar      1 <0>        -0.4374
     24 Cl1        -0.6060   -5.5155   -7.3343 Cl        1 <0>         0.0173
     25 Cl2        -1.7893   -5.1551  -10.1974 Cl        1 <0>        -0.0118
     26 N3         -3.4991   -2.7079  -10.4987 N.pl3     1 <0>        -0.8337
     27 Cl3        -4.2183   -0.6017   -8.4783 Cl        1 <0>         0.0062
     28 H2          1.0039    1.9031    0.0027 H         1 <0>         0.0603
     29 H3         -0.5459    1.8868   -0.8726 H         1 <0>         0.0537
     30 H4         -0.5289    1.8773    0.9072 H         1 <0>         0.0649
     31 H5          0.5123   -0.3556   -0.8948 H         1 <0>         0.0863
     32 H6          0.7568   -1.6008    1.2356 H         1 <0>         0.0588
     33 H7          1.7647   -0.1336    1.2338 H         1 <0>         0.0612
     34 H8          0.2319   -0.1594    2.1383 H         1 <0>         0.0589
     35 H9         -2.1081   -1.5107    2.6176 H         1 <0>         0.1358
     36 H10        -3.3721   -0.1991    4.2982 H         1 <0>         0.1364
     37 H11        -4.1043    2.1848    3.6164 H         1 <0>         0.1869
     38 H12        -2.6480    0.6552   -1.2597 H         1 <0>         0.4025
     39 H13        -3.7381   -0.4786   -3.4480 H         1 <0>         0.1055
     40 H14        -2.3093    0.4688   -3.9267 H         1 <0>         0.1055
     41 H15        -4.0638   -1.9393  -10.6757 H         1 <0>         0.4154
     42 H16        -3.3127   -3.3457  -11.2054 H         1 <0>         0.4157
@<TRIPOS>BOND
     1    1    2 1
     2    1   28 1
     3    1   29 1
     4    1   30 1
     5    2    3 1
     6    2    4 1
     7    2   31 1
     8    3   32 1
     9    3   33 1
    10    3   34 1
    11    4    5 1
    12    4    6 1
    13    4   11 1
    14    6   10 1
    15    6    7 2
    16    7    8 1
    17    7   35 1
    18    8    9 2
    19    8   36 1
    20    9   10 1
    21    9   37 1
    22   11   12 am
    23   11   38 1
    24   12   13 2
    25   12   14 1
    26   14   15 1
    27   14   39 1
    28   14   40 1
    29   15   16 1
    30   16   17 2
    31   16   18 1
    32   18   23 ar
    33   18   19 ar
    34   19   20 ar
    35   19   27 1
    36   20   21 ar
    37   20   26 1
    38   21   22 ar
    39   21   25 1
    40   22   23 ar
    41   22   24 1
    42   26   41 1
    43   26   42 1
@<TRIPOS>MOLECULE
ZINC01177336
   34    36     0     0     0
SMALL
USER_CHARGES
5-bromo-3-hydroxy-3-[2-(2-hydroxyphenyl)-2-oxo-ethyl]-indolin-2-one
@<TRIPOS>ATOM
      1 C1         -0.0126    1.0758    0.0080 C.ar      1 <0>        -0.1420
      2 C2          1.1805    1.7817    0.0004 C.ar      1 <0>        -0.0688
      3 C3          1.1768    3.1622    0.0073 C.ar      1 <0>        -0.1608
      4 C4         -0.0247    3.8547    0.0216 C.ar      1 <0>         0.1707
      5 C5         -1.2362    3.1444    0.0294 C.ar      1 <0>        -0.1992
      6 C6         -1.2161    1.7444    0.0173 C.ar      1 <0>        -0.0612
      7 C7         -2.5150    3.8648    0.0445 C.2       1 <0>         0.3778
      8 O1         -2.5278    5.0777    0.0503 O.2       1 <0>        -0.3995
      9 C8         -3.8121    3.0975    0.0527 C.3       1 <0>        -0.1707
     10 C9         -4.9854    4.0794    0.0681 C.3       1 <0>         0.1653
     11 C10        -6.2918    3.3406    0.2466 C.ar      1 <0>        -0.1367
     12 C11        -6.9384    2.3843   -0.4992 C.ar      1 <0>        -0.0125
     13 C12        -8.1543    1.8781   -0.0718 C.ar      1 <0>        -0.1211
     14 C13        -8.7140    2.3368    1.1078 C.ar      1 <0>        -0.0409
     15 C14        -8.0672    3.2953    1.8599 C.ar      1 <0>        -0.1377
     16 C15        -6.8431    3.8092    1.4359 C.ar      1 <0>         0.1775
     17 N1         -6.0079    4.7681    2.0110 N.am      1 <0>        -0.6607
     18 C16        -4.9029    4.9855    1.2781 C.2       1 <0>         0.5020
     19 O2         -4.0076    5.7615    1.5373 O.2       1 <0>        -0.4432
     20 Br1        -9.0479    0.5644   -1.0973 Br        1 <0>        -0.0364
     21 O3         -5.0067    4.8508   -1.1346 O.3       1 <0>        -0.5244
     22 O4         -0.0297    5.2107    0.0285 O.3       1 <0>        -0.4785
     23 H1          0.0021   -0.0041    0.0020 H         1 <0>         0.1336
     24 H2          2.1193    1.2480   -0.0115 H         1 <0>         0.1335
     25 H3          2.1112    3.7038    0.0013 H         1 <0>         0.1367
     26 H4         -2.1429    1.1899    0.0190 H         1 <0>         0.1348
     27 H5         -3.8664    2.5259   -0.7661 H         1 <0>         0.1109
     28 H6         -3.8551    2.4661    0.9402 H         1 <0>         0.1141
     29 H7         -6.4979    2.0288   -1.4190 H         1 <0>         0.1422
     30 H8         -9.6625    1.9425    1.4412 H         1 <0>         0.1456
     31 H9         -8.5105    3.6485    2.7792 H         1 <0>         0.1414
     32 H10        -6.2029    5.2253    2.8440 H         1 <0>         0.4179
     33 H11        -4.2037    5.3684   -1.2842 H         1 <0>         0.3933
     34 H12        -0.0391    5.6084   -0.8529 H         1 <0>         0.3969
@<TRIPOS>BOND
     1    1    6 ar
     2    1    2 ar
     3    1   23 1
     4    2    3 ar
     5    2   24 1
     6    3    4 ar
     7    3   25 1
     8    4    5 ar
     9    4   22 1
    10    5    6 ar
    11    5    7 1
    12    6   26 1
    13    7    8 2
    14    7    9 1
    15    9   10 1
    16    9   27 1
    17    9   28 1
    18   10   18 1
    19   10   11 1
    20   10   21 1
    21   11   16 ar
    22   11   12 ar
    23   12   13 ar
    24   12   29 1
    25   13   14 ar
    26   13   20 1
    27   14   15 ar
    28   14   30 1
    29   15   16 ar
    30   15   31 1
    31   16   17 1
    32   17   18 am
    33   17   32 1
    34   18   19 2
    35   21   33 1
    36   22   34 1
@<TRIPOS>MOLECULE
ZINC24442294
   45    47     0     0     0
SMALL
USER_CHARGES
[(1S)-1-(4-chlorophenyl)-3-[(2R)-2-methylindolin-1-yl]-3-oxo-propyl]urea
@<TRIPOS>ATOM
      1 C1          1.1597    6.2874   -2.0080 C.3       1 <0>        -0.1683
      2 C2          1.9981    5.9759   -0.7667 C.3       1 <0>         0.1314
      3 H1          1.4970    6.4257    0.1031 H         1 <0>         0.0899
      4 C3          3.4415    6.4701   -0.9570 C.3       1 <0>        -0.0834
      5 C4          4.2869    5.2196   -0.8677 C.ar      1 <0>        -0.1316
      6 C5          5.6535    5.0408   -0.9679 C.ar      1 <0>        -0.0733
      7 C6          6.1987    3.7761   -0.8504 C.ar      1 <0>        -0.1407
      8 C7          5.3727    2.6886   -0.6316 C.ar      1 <0>        -0.0846
      9 C8          4.0091    2.8623   -0.5301 C.ar      1 <0>        -0.1599
     10 C9          3.4508    4.1367   -0.6486 C.ar      1 <0>         0.1439
     11 N1          2.1098    4.5269   -0.5791 N.am      1 <0>        -0.5497
     12 C10         1.0717    3.6919   -0.3754 C.2       1 <0>         0.5345
     13 O1         -0.0587    4.1292   -0.3316 O.2       1 <0>        -0.5176
     14 C11         1.3155    2.2149   -0.2020 C.3       1 <0>        -0.1705
     15 C12        -0.0197    1.4994    0.0127 C.3       1 <0>         0.2304
     16 H2         -0.7304    1.7395   -0.7919 H         1 <0>         0.1103
     17 C13         0.2105    0.0109    0.0634 C.ar      1 <0>        -0.0760
     18 C14         1.3023   -0.5417   -0.5798 C.ar      1 <0>        -0.1002
     19 C15         1.5170   -1.9061   -0.5289 C.ar      1 <0>        -0.1055
     20 C16         0.6329   -2.7202    0.1565 C.ar      1 <0>        -0.0346
     21 C17        -0.4627   -2.1672    0.7952 C.ar      1 <0>        -0.1075
     22 C18        -0.6733   -0.8020    0.7484 C.ar      1 <0>        -0.0869
     23 Cl1         0.8984   -4.4347    0.2154 Cl        1 <0>        -0.0717
     24 N2         -0.6150    1.9447    1.2750 N.am      1 <0>        -0.7484
     25 C19         0.0098    1.6898    2.4417 C.2       1 <0>         0.7064
     26 O2          1.1111    1.1745    2.4416 O.2       1 <0>        -0.5948
     27 N3         -0.5862    2.0060    3.6084 N.am      1 <0>        -0.8931
     28 H3          1.0847    7.3774   -2.1357 H         1 <0>         0.0737
     29 H4          0.1525    5.8623   -1.8863 H         1 <0>         0.0749
     30 H5          1.6391    5.8464   -2.8944 H         1 <0>         0.0590
     31 H6          3.5354    6.9587   -1.9380 H         1 <0>         0.0949
     32 H7          3.6902    7.1901   -0.1634 H         1 <0>         0.0917
     33 H8          6.2970    5.8912   -1.1387 H         1 <0>         0.1267
     34 H9          7.2668    3.6374   -0.9296 H         1 <0>         0.1285
     35 H10         5.7977    1.7000   -0.5393 H         1 <0>         0.1306
     36 H11         3.3696    2.0090   -0.3589 H         1 <0>         0.1357
     37 H12         1.8047    1.8158   -1.1028 H         1 <0>         0.1088
     38 H13         1.9642    2.0503    0.6710 H         1 <0>         0.1331
     39 H14         1.9900    0.0934   -1.1185 H         1 <0>         0.1308
     40 H15         2.3725   -2.3372   -1.0277 H         1 <0>         0.1341
     41 H16        -1.1531   -2.8021    1.3307 H         1 <0>         0.1312
     42 H17        -1.5283   -0.3702    1.2472 H         1 <0>         0.1268
     43 H18        -1.5720    2.4871    1.2706 H         1 <0>         0.4235
     44 H19        -0.0763    1.7980    4.5606 H         1 <0>         0.4352
     45 H20        -1.5826    2.4721    3.6084 H         1 <0>         0.4123
@<TRIPOS>BOND
     1    1    2 1
     2    1   28 1
     3    1   29 1
     4    1   30 1
     5    2    3 1
     6    2   11 1
     7    2    4 1
     8    4    5 1
     9    4   31 1
    10    4   32 1
    11    5   10 ar
    12    5    6 ar
    13    6    7 ar
    14    6   33 1
    15    7    8 ar
    16    7   34 1
    17    8    9 ar
    18    8   35 1
    19    9   10 ar
    20    9   36 1
    21   10   11 1
    22   11   12 am
    23   12   13 2
    24   12   14 1
    25   14   15 1
    26   14   37 1
    27   14   38 1
    28   15   16 1
    29   15   17 1
    30   15   24 1
    31   17   22 ar
    32   17   18 ar
    33   18   19 ar
    34   18   39 1
    35   19   20 ar
    36   19   40 1
    37   20   21 ar
    38   20   23 1
    39   21   22 ar
    40   21   41 1
    41   22   42 1
    42   24   25 am
    43   24   43 1
    44   25   26 2
    45   25   27 am
    46   27   44 1
    47   27   45 1
@<TRIPOS>MOLECULE
ZINC37844804
   28    29     0     0     0
SMALL
USER_CHARGES

@<TRIPOS>ATOM
      1 C1         -0.0231    1.3659    0.0398 C.ar      1 <0>        -0.0277
      2 C2          1.1607    2.0808    0.0253 C.ar      1 <0>        -0.1060
      3 C3          2.3712    1.4149   -0.0004 C.ar      1 <0>        -0.0170
      4 C4          2.3976    0.0251   -0.0111 C.ar      1 <0>         0.1436
      5 C5          1.2070   -0.6887    0.0041 C.ar      1 <0>        -0.0182
      6 C6          0.0003   -0.0164    0.0293 C.ar      1 <0>        -0.6540
      7 S1         -1.5111   -0.9221    0.0486 S.o2      1 <0>         2.7040
      8 O1         -1.2101   -2.2031    0.5849 O.2       1 <0>        -0.9547
      9 O2         -2.4898   -0.0666    0.6226 O.2       1 <0>        -0.9549
     10 N1         -1.9582   -1.1621   -1.5278 N.pl3     1 <0>        -1.2446
     11 N2          3.6213   -0.6529   -0.0375 N.am      1 <0>        -0.6648
     12 C7          3.6889   -1.9022   -0.5386 C.2       1 <0>         0.5812
     13 O3          2.7098   -2.4025   -1.0592 O.2       1 <0>        -0.5064
     14 C8          4.9470   -2.6610   -0.4560 C.2       1 <0>        -0.1891
     15 C9          5.0586   -3.9986   -0.9864 C.2       1 <0>        -0.0532
     16 C10         6.2658   -4.5845   -0.8476 C.2       1 <0>        -0.2167
     17 S2          7.2250   -3.3392   -0.0131 S.3       1 <0>         0.2777
     18 C11         6.0743   -2.1261    0.1256 C.2       1 <0>        -0.2030
     19 Br1         6.8067   -6.3091   -1.4035 Br        1 <0>         0.0509
     20 Cl1         3.8570    2.3126   -0.0198 Cl        1 <0>        -0.0469
     21 H1         -0.9679    1.8885    0.0640 H         1 <0>         0.1565
     22 H2          1.1390    3.1606    0.0336 H         1 <0>         0.1525
     23 H3          1.2240   -1.7685   -0.0045 H         1 <0>         0.1751
     24 H4         -2.4657   -1.9514   -1.7731 H         1 <0>         0.4238
     25 H5         -1.7125   -0.5133   -2.2057 H         1 <0>         0.4179
     26 H6          4.4210   -0.2237    0.3049 H         1 <0>         0.4142
     27 H7          4.2287   -4.4986   -1.4636 H         1 <0>         0.1631
     28 H8          6.1909   -1.1491    0.5709 H         1 <0>         0.1967
@<TRIPOS>BOND
     1    1    6 ar
     2    1    2 ar
     3    1   21 1
     4    2    3 ar
     5    2   22 1
     6    3    4 ar
     7    3   20 1
     8    4    5 ar
     9    4   11 1
    10    5    6 ar
    11    5   23 1
    12    6    7 1
    13    7    8 2
    14    7    9 2
    15    7   10 1
    16   10   24 1
    17   10   25 1
    18   11   12 am
    19   11   26 1
    20   12   13 2
    21   12   14 1
    22   14   18 2
    23   14   15 1
    24   15   16 2
    25   15   27 1
    26   16   17 1
    27   16   19 1
    28   17   18 1
    29   18   28 1
@<TRIPOS>MOLECULE
ZINC50640597
   32    34     0     0     0
SMALL
USER_CHARGES

@<TRIPOS>ATOM
      1 C1         -0.0164    1.3568    0.0095 C.2       1 <0>        -0.0215
      2 C2          1.1938    2.0685    0.0018 C.2       1 <0>        -0.1221
      3 C3          2.3716    1.4083   -0.0135 C.2       1 <0>         0.1062
      4 N1          2.4036    0.0447   -0.0216 N.pl3     1 <0>        -0.2500
      5 C4          1.2390   -0.6775   -0.0139 C.cat     1 <0>         0.3058
      6 C5          0.0021   -0.0041    0.0020 C.2       1 <0>        -0.1252
      7 N2          1.5517   -1.9672   -0.0251 N.pl3     1 <0>        -0.5441
      8 C6          2.8829   -2.0971   -0.0398 C.2       1 <0>         0.4798
      9 C7          3.4363   -0.8573   -0.0379 C.2       1 <0>        -0.6024
     10 S1          5.1571   -0.4788   -0.0540 S.o2      1 <0>         2.6130
     11 O1          5.8153   -1.6045   -0.6186 O.2       1 <0>        -1.0050
     12 O2          5.2804    0.8280   -0.5985 O.2       1 <0>        -1.0072
     13 N3          5.6522   -0.3829    1.5233 N.2       1 <0>        -1.0771
     14 C8          6.9861   -0.0920    1.8205 C.ar      1 <0>         0.2811
     15 C9          7.8968    0.1226    0.7939 C.ar      1 <0>        -0.2560
     16 C10         9.2146    0.4099    1.0906 C.ar      1 <0>        -0.0339
     17 C11         9.6282    0.4836    2.4089 C.ar      1 <0>        -0.1746
     18 C12         8.7232    0.2703    3.4336 C.ar      1 <0>        -0.0479
     19 C13         7.4028   -0.0113    3.1430 C.ar      1 <0>        -0.1686
     20 Br1        11.4338    0.8760    2.8110 Br        1 <0>        -0.0844
     21 N4          3.5870   -3.3078   -0.0539 N.pl3     1 <0>        -0.8080
     22 H1         -0.9573    1.8867    0.0258 H         1 <0>         0.1738
     23 H2          1.1827    3.1485    0.0077 H         1 <0>         0.1848
     24 H3          3.2969    1.9652   -0.0197 H         1 <0>         0.2123
     25 H4         -0.9226   -0.5620    0.0075 H         1 <0>         0.1767
     26 H5          7.5748    0.0645   -0.2353 H         1 <0>         0.1045
     27 H6          9.9232    0.5769    0.2928 H         1 <0>         0.1180
     28 H7          9.0489    0.3281    4.4617 H         1 <0>         0.1213
     29 H8          6.6959   -0.1733    3.9433 H         1 <0>         0.1235
     30 H9          3.1047   -4.1494   -0.0539 H         1 <0>         0.4199
     31 H10         4.5570   -3.3047   -0.0637 H         1 <0>         0.4507
     32 H11         0.9157   -2.6995   -0.0230 H         1 <0>         0.4566
@<TRIPOS>BOND
     1    1    6 2
     2    1    2 1
     3    1   22 1
     4    2    3 2
     5    2   23 1
     6    3    4 1
     7    3   24 1
     8    4    9 1
     9    4    5 1
    10    5    6 1
    11    5    7 2
    12    6   25 1
    13    7    8 1
    14    7   32 1
    15    8    9 2
    16    8   21 1
    17    9   10 1
    18   10   11 2
    19   10   12 2
    20   10   13 1
    21   13   14 1
    22   14   19 ar
    23   14   15 ar
    24   15   16 ar
    25   15   26 1
    26   16   17 ar
    27   16   27 1
    28   17   18 ar
    29   17   20 1
    30   18   19 ar
    31   18   28 1
    32   19   29 1
    33   21   30 1
    34   21   31 1
@<TRIPOS>MOLECULE
ZINC06227708
   29    30     0     0     0
SMALL
USER_CHARGES

@<TRIPOS>ATOM
      1 C1          0.0563    1.3967    0.6833 C.ar      1 <0>        -0.0256
      2 C2          1.2043    2.1092    0.3999 C.ar      1 <0>        -0.1258
      3 C3          2.4046    1.4418    0.1833 C.ar      1 <0>         0.1909
      4 C4          2.4288    0.0429    0.2576 C.ar      1 <0>        -0.1632
      5 C5          1.2681   -0.6664    0.5432 C.ar      1 <0>        -0.0193
      6 C6          0.0843    0.0138    0.7560 C.ar      1 <0>        -0.1116
      7 Br1        -1.4989   -0.9441    1.1455 Br        1 <0>        -0.0188
      8 C7          3.8264   -0.3661   -0.0151 C.2       1 <0>         0.1106
      9 N1          4.3098   -1.5850   -0.0489 N.2       1 <0>        -0.1700
     10 N2          3.4474   -2.6838    0.0585 N.pl3     1 <0>        -0.5329
     11 C8          3.9520   -3.9303    0.1478 C.2       1 <0>         0.5912
     12 S1          2.8980   -5.2731    0.2790 S.2       1 <0>        -0.5777
     13 N3          5.2863   -4.1198    0.1339 N.pl3     1 <0>        -0.7770
     14 C9          4.5561    0.8965   -0.2413 C.2       1 <0>         0.5898
     15 O1          5.7409    1.0028   -0.4985 O.2       1 <0>        -0.4491
     16 N4          3.6808    1.9082   -0.1134 N.am      1 <0>        -0.5395
     17 C10         4.0269    3.3233   -0.2679 C.3       1 <0>         0.1046
     18 C11         4.4454    3.8968    1.0874 C.3       1 <0>        -0.0598
     19 Cl1         4.8714    5.6384    0.8974 Cl        1 <0>        -0.1524
     20 H1         -0.8712    1.9228    0.8544 H         1 <0>         0.1539
     21 H2          1.1699    3.1873    0.3459 H         1 <0>         0.1492
     22 H3          1.2916   -1.7447    0.5996 H         1 <0>         0.1355
     23 H4          2.4870   -2.5474    0.0685 H         1 <0>         0.4222
     24 H5          5.8834   -3.3590    0.0596 H         1 <0>         0.4112
     25 H6          5.6494   -5.0169    0.1982 H         1 <0>         0.4366
     26 H7          4.8516    3.4207   -0.9739 H         1 <0>         0.1133
     27 H8          3.1616    3.8703   -0.6423 H         1 <0>         0.1099
     28 H9          3.6207    3.7995    1.7935 H         1 <0>         0.1020
     29 H10         5.3107    3.3499    1.4618 H         1 <0>         0.1019
@<TRIPOS>BOND
     1    1    6 ar
     2    1    2 ar
     3    1   20 1
     4    2    3 ar
     5    2   21 1
     6    3   16 1
     7    3    4 ar
     8    4    5 ar
     9    4    8 1
    10    5    6 ar
    11    5   22 1
    12    6    7 1
    13    8    9 2
    14    8   14 1
    15    9   10 1
    16   10   11 1
    17   10   23 1
    18   11   12 2
    19   11   13 1
    20   13   24 1
    21   13   25 1
    22   14   15 2
    23   14   16 am
    24   16   17 1
    25   17   18 1
    26   17   26 1
    27   17   27 1
    28   18   19 1
    29   18   28 1
    30   18   29 1
@<TRIPOS>MOLECULE
ZINC04543530
   38    38     0     0     0
SMALL
USER_CHARGES
2-(2,4-dibromophenoxy)-N-(1,3-dimethylbutylideneamino)acetamide
@<TRIPOS>ATOM
      1 C1          0.9765    0.0666   -1.6021 C.3       1 <0>        -0.1481
      2 C2          0.5855    0.3667   -0.1536 C.3       1 <0>        -0.0885
      3 C3          1.8129    0.2165    0.7475 C.3       1 <0>        -0.1492
      4 C4          0.0525    1.7974   -0.0552 C.3       1 <0>        -0.0599
      5 C5         -0.4623    2.0469    1.3390 C.2       1 <0>         0.1043
      6 N1          0.3202    2.5188    2.2354 N.2       1 <0>        -0.2293
      7 N2         -0.1584    2.7507    3.5315 N.am      1 <0>        -0.5878
      8 C6          0.6656    3.2476    4.4753 C.2       1 <0>         0.5309
      9 O1          1.8215    3.4941    4.2025 O.2       1 <0>        -0.4698
     10 C7          0.1507    3.4971    5.8695 C.3       1 <0>         0.0430
     11 O2          1.2048    4.0207    6.6799 O.3       1 <0>        -0.2699
     12 C8          0.9053    4.3026    7.9755 C.ar      1 <0>         0.1709
     13 C9         -0.3766    4.0797    8.4564 C.ar      1 <0>        -0.2003
     14 C10        -0.6791    4.3668    9.7733 C.ar      1 <0>        -0.0328
     15 C11         0.2954    4.8761   10.6132 C.ar      1 <0>        -0.1256
     16 C12         1.5744    5.0998   10.1362 C.ar      1 <0>        -0.0213
     17 C13         1.8830    4.8085    8.8206 C.ar      1 <0>        -0.1201
     18 Br1         3.6339    5.1060    8.1710 Br        1 <0>        -0.0130
     19 Br2        -0.1219    5.2674   12.4156 Br        1 <0>        -0.0332
     20 C14        -1.8985    1.7407    1.6779 C.3       1 <0>        -0.1618
     21 H1          0.0983    0.1559   -2.2414 H         1 <0>         0.0566
     22 H2          1.7367    0.7766   -1.9277 H         1 <0>         0.0580
     23 H3          1.3731   -0.9465   -1.6689 H         1 <0>         0.0583
     24 H4         -0.1876   -0.3319    0.1662 H         1 <0>         0.0714
     25 H5          1.5344    0.4303    1.7794 H         1 <0>         0.0556
     26 H6          2.1926   -0.8028    0.6774 H         1 <0>         0.0533
     27 H7          2.5861    0.9151    0.4277 H         1 <0>         0.0586
     28 H8          0.8554    2.5004   -0.2772 H         1 <0>         0.0872
     29 H9         -0.7578    1.9333   -0.7715 H         1 <0>         0.0893
     30 H10        -1.0828    2.5537    3.7497 H         1 <0>         0.3853
     31 H11        -0.6689    4.2146    5.8312 H         1 <0>         0.1022
     32 H12        -0.2061    2.5605    6.2980 H         1 <0>         0.1022
     33 H13        -1.1376    3.6815    7.8017 H         1 <0>         0.1461
     34 H14        -1.6771    4.1932   10.1479 H         1 <0>         0.1450
     35 H15         2.3336    5.4973   10.7934 H         1 <0>         0.1515
     36 H16        -1.9639    0.7451    2.1167 H         1 <0>         0.0848
     37 H17        -2.2684    2.4772    2.3913 H         1 <0>         0.0674
     38 H18        -2.5018    1.7784    0.7709 H         1 <0>         0.0886
@<TRIPOS>BOND
     1    1    2 1
     2    1   21 1
     3    1   22 1
     4    1   23 1
     5    2    3 1
     6    2    4 1
     7    2   24 1
     8    3   25 1
     9    3   26 1
    10    3   27 1
    11    4    5 1
    12    4   28 1
    13    4   29 1
    14    5    6 2
    15    5   20 1
    16    6    7 1
    17    7    8 am
    18    7   30 1
    19    8    9 2
    20    8   10 1
    21   10   11 1
    22   10   31 1
    23   10   32 1
    24   11   12 1
    25   12   17 ar
    26   12   13 ar
    27   13   14 ar
    28   13   33 1
    29   14   15 ar
    30   14   34 1
    31   15   16 ar
    32   15   19 1
    33   16   17 ar
    34   16   35 1
    35   17   18 1
    36   20   36 1
    37   20   37 1
    38   20   38 1
@<TRIPOS>MOLECULE
ZINC08050493
   45    47     0     0     0
SMALL
USER_CHARGES
3-fluoro-N-[2-(p-tolyl)-2-(2-thienylsulfonyl)ethyl]-benzamide
@<TRIPOS>ATOM
      1 C1        -11.0852   -1.0381    0.0458 C.3       1 <0>        -0.1203
      2 C2         -9.7880   -0.2710    0.0444 C.ar      1 <0>        -0.0691
      3 C3         -9.5024    0.6020   -0.9887 C.ar      1 <0>        -0.1163
      4 C4         -8.3128    1.3059   -0.9898 C.ar      1 <0>        -0.0850
      5 C5         -7.4084    1.1365    0.0419 C.ar      1 <0>        -0.0894
      6 C6         -7.6915    0.2593    1.0720 C.ar      1 <0>        -0.1214
      7 C7         -8.8835   -0.4408    1.0758 C.ar      1 <0>        -0.1070
      8 C8         -6.1113    1.9036    0.0404 C.3       1 <0>        -0.5345
      9 H1         -6.0641    2.5360   -0.8461 H         1 <0>         0.1600
     10 C9         -4.9381    0.9216    0.0294 C.3       1 <0>         0.1389
     11 N1         -3.6771    1.6673    0.0280 N.am      1 <0>        -0.7377
     12 C10        -2.5029    1.0057    0.0189 C.2       1 <0>         0.5680
     13 O1         -2.4902   -0.2097    0.0118 O.2       1 <0>        -0.5249
     14 C11        -1.2303    1.7583    0.0174 C.ar      1 <0>        -0.1106
     15 C12        -0.0126    1.0758    0.0080 C.ar      1 <0>        -0.0689
     16 C13         1.1720    1.7827    0.0004 C.ar      1 <0>        -0.0978
     17 C14         1.1562    3.1660    0.0076 C.ar      1 <0>        -0.1256
     18 C15        -0.0482    3.8507    0.0224 C.ar      1 <0>         0.0944
     19 C16        -1.2416    3.1535    0.0305 C.ar      1 <0>        -0.1186
     20 F1         -0.0561    5.2016    0.0293 F         1 <0>        -0.1332
     21 S1         -6.0194    2.9389    1.5272 S.o2      1 <0>         2.5304
     22 O2         -4.7318    3.5307    1.6326 O.2       1 <0>        -0.9244
     23 O3         -7.1928    3.7315    1.6450 O.2       1 <0>        -0.9136
     24 C17        -6.1051    1.8059    2.8739 C.2       1 <0>        -0.7607
     25 C18        -5.0975    1.1671    3.5174 C.2       1 <0>         0.0014
     26 C19        -5.4032    0.3153    4.5623 C.2       1 <0>        -0.1932
     27 C20        -6.7021    0.1357    4.9055 C.2       1 <0>        -0.1345
     28 S2         -7.5420    1.1953    3.7397 S.3       1 <0>         0.1880
     29 H2        -10.9473   -1.9861   -0.4741 H         1 <0>         0.0747
     30 H3        -11.3933   -1.2289    1.0738 H         1 <0>         0.0697
     31 H4        -11.8532   -0.4540   -0.4612 H         1 <0>         0.0702
     32 H5        -10.2090    0.7343   -1.7948 H         1 <0>         0.1299
     33 H6         -8.0897    1.9880   -1.7969 H         1 <0>         0.1294
     34 H7         -6.9830    0.1236    1.8758 H         1 <0>         0.1336
     35 H8         -9.1064   -1.1231    1.8827 H         1 <0>         0.1287
     36 H9         -4.9933    0.2996   -0.8639 H         1 <0>         0.1015
     37 H10        -4.9852    0.2893    0.9160 H         1 <0>         0.0893
     38 H11        -3.6872    2.6373    0.0337 H         1 <0>         0.4105
     39 H12         0.0021   -0.0041    0.0020 H         1 <0>         0.1448
     40 H13         2.1141    1.2549   -0.0114 H         1 <0>         0.1430
     41 H14         2.0866    3.7145    0.0013 H         1 <0>         0.1424
     42 H15        -2.1804    3.6872    0.0420 H         1 <0>         0.1444
     43 H16        -4.0711    1.3236    3.2202 H         1 <0>         0.1477
     44 H17        -4.6190   -0.2029    5.0942 H         1 <0>         0.1474
     45 H18        -7.1204   -0.4866    5.6828 H         1 <0>         0.1984
@<TRIPOS>BOND
     1    1    2 1
     2    1   29 1
     3    1   30 1
     4    1   31 1
     5    2    7 ar
     6    2    3 ar
     7    3    4 ar
     8    3   32 1
     9    4    5 ar
    10    4   33 1
    11    5    6 ar
    12    5    8 1
    13    6    7 ar
    14    6   34 1
    15    7   35 1
    16    8    9 1
    17    8   10 1
    18    8   21 1
    19   10   11 1
    20   10   36 1
    21   10   37 1
    22   11   12 am
    23   11   38 1
    24   12   13 2
    25   12   14 1
    26   14   19 ar
    27   14   15 ar
    28   15   16 ar
    29   15   39 1
    30   16   17 ar
    31   16   40 1
    32   17   18 ar
    33   17   41 1
    34   18   19 ar
    35   18   20 1
    36   19   42 1
    37   21   22 2
    38   21   23 2
    39   21   24 1
    40   24   28 1
    41   24   25 2
    42   25   26 1
    43   25   43 1
    44   26   27 2
    45   26   44 1
    46   27   28 1
    47   27   45 1
@<TRIPOS>MOLECULE
ZINC15239764
   43    45     0     0     0
SMALL
USER_CHARGES
2-benzylsulfanyl-N-[2-[(2,3-dichlorophenyl)methyl]pyrazol-3-yl]acetamide
@<TRIPOS>ATOM
      1 C1         -7.6469   -0.7212    0.0344 C.ar      1 <0>        -0.1119
      2 C2         -7.0810   -0.3230    1.2311 C.ar      1 <0>        -0.1198
      3 C3         -5.9601    0.4860    1.2301 C.ar      1 <0>        -0.0998
      4 C4         -5.4054    0.8972    0.0326 C.ar      1 <0>        -0.0777
      5 C5         -5.9747    0.5036   -1.1641 C.ar      1 <0>        -0.0998
      6 C6         -7.0926   -0.3096   -1.1632 C.ar      1 <0>        -0.1197
      7 C7         -4.1837    1.7795    0.0316 C.3       1 <0>        -0.0643
      8 S1         -2.6922    0.7470    0.0189 S.3       1 <0>        -0.1594
      9 C8         -1.3296    1.9444    0.0189 C.3       1 <0>        -0.1342
     10 C9         -0.0144    1.2087    0.0087 C.2       1 <0>         0.5383
     11 O1          0.0021   -0.0041    0.0020 O.2       1 <0>        -0.4746
     12 N1          1.1435    1.8984    0.0013 N.am      1 <0>        -0.6476
     13 C10         2.3607    1.2176   -0.0139 C.2       1 <0>         0.3028
     14 C11         2.5264   -0.1334   -0.0233 C.2       1 <0>        -0.2714
     15 C12         3.8990   -0.3960   -0.0376 C.2       1 <0>         0.0607
     16 N2          4.5365    0.7467   -0.0369 N.2       1 <0>        -0.2711
     17 N3          3.5908    1.7799   -0.0281 N.pl3     1 <0>        -0.3828
     18 C13         3.8824    3.2155   -0.0309 C.3       1 <0>         0.1716
     19 C14         3.9990    3.7072    1.3888 C.ar      1 <0>        -0.1036
     20 C15         2.9045    4.2718    2.0169 C.ar      1 <0>        -0.0901
     21 C16         3.0090    4.7178    3.3211 C.ar      1 <0>        -0.1029
     22 C17         4.2113    4.6102    3.9950 C.ar      1 <0>        -0.0877
     23 C18         5.3088    4.0509    3.3662 C.ar      1 <0>        -0.0339
     24 C19         5.2026    3.5989    2.0615 C.ar      1 <0>        -0.0073
     25 Cl1         6.5794    2.8971    1.2707 Cl        1 <0>        -0.0219
     26 Cl2         6.8186    3.9151    4.2122 Cl        1 <0>        -0.0397
     27 H1         -8.5225   -1.3535    0.0351 H         1 <0>         0.1242
     28 H2         -7.5143   -0.6442    2.1667 H         1 <0>         0.1253
     29 H3         -5.5179    0.7971    2.1651 H         1 <0>         0.1244
     30 H4         -5.5440    0.8285   -2.0996 H         1 <0>         0.1245
     31 H5         -7.5350   -0.6204   -2.0981 H         1 <0>         0.1254
     32 H6         -4.1857    2.4039    0.9250 H         1 <0>         0.0918
     33 H7         -4.1942    2.4136   -0.8549 H         1 <0>         0.0919
     34 H8         -1.3916    2.5654    0.9126 H         1 <0>         0.1158
     35 H9         -1.4000    2.5750   -0.8673 H         1 <0>         0.1164
     36 H10         1.1304    2.8683    0.0067 H         1 <0>         0.4074
     37 H11         1.7376   -0.8710   -0.0207 H         1 <0>         0.1732
     38 H12         4.3555   -1.3748   -0.0471 H         1 <0>         0.1878
     39 H13         4.8208    3.3946   -0.5557 H         1 <0>         0.1169
     40 H14         3.0766    3.7490   -0.5351 H         1 <0>         0.1009
     41 H15         1.9661    4.3606    1.4897 H         1 <0>         0.1321
     42 H16         2.1522    5.1549    3.8122 H         1 <0>         0.1433
     43 H17         4.2933    4.9627    5.0126 H         1 <0>         0.1465
@<TRIPOS>BOND
     1    1    6 ar
     2    1    2 ar
     3    1   27 1
     4    2    3 ar
     5    2   28 1
     6    3    4 ar
     7    3   29 1
     8    4    5 ar
     9    4    7 1
    10    5    6 ar
    11    5   30 1
    12    6   31 1
    13    7    8 1
    14    7   32 1
    15    7   33 1
    16    8    9 1
    17    9   10 1
    18    9   34 1
    19    9   35 1
    20   10   11 2
    21   10   12 am
    22   12   13 1
    23   12   36 1
    24   13   17 1
    25   13   14 2
    26   14   15 1
    27   14   37 1
    28   15   16 2
    29   15   38 1
    30   16   17 1
    31   17   18 1
    32   18   19 1
    33   18   39 1
    34   18   40 1
    35   19   24 ar
    36   19   20 ar
    37   20   21 ar
    38   20   41 1
    39   21   22 ar
    40   21   42 1
    41   22   23 ar
    42   22   43 1
    43   23   24 ar
    44   23   26 1
    45   24   25 1
@<TRIPOS>MOLECULE
ZINC27691474
   48    50     0     0     0
SMALL
USER_CHARGES
N-[(1R)-2-[(3R)-5-bromo-1-(2-methylprop-2-enyl)indolin-3-yl]-1-methyl-ethyl]furan-2-carboxamide
@<TRIPOS>ATOM
      1 C1         -3.1095   -4.7572    4.6740 C.3       1 <0>        -0.1647
      2 C2         -2.9321   -3.9349    3.3960 C.3       1 <0>         0.1395
      3 H1         -2.0901   -4.3193    2.8017 H         1 <0>         0.0957
      4 C3         -2.7075   -2.4663    3.7615 C.3       1 <0>        -0.1172
      5 C4         -2.4064   -1.6654    2.4932 C.3       1 <0>        -0.0530
      6 H2         -3.2549   -1.8447    1.8166 H         1 <0>         0.0905
      7 C5         -2.1711   -0.1749    2.8298 C.3       1 <0>         0.0358
      8 N1         -0.7035   -0.1100    3.0018 N.pl3     1 <0>        -0.4564
      9 C6         -0.1340   -1.1256    2.2229 C.ar      1 <0>         0.1210
     10 C7         -1.0805   -2.0887    1.8931 C.ar      1 <0>        -0.1284
     11 C8         -0.7280   -3.1854    1.1355 C.ar      1 <0>        -0.0469
     12 C9          0.5749   -3.3323    0.6919 C.ar      1 <0>        -0.1142
     13 C10         1.5227   -2.3762    1.0101 C.ar      1 <0>        -0.0631
     14 C11         1.1750   -1.2787    1.7700 C.ar      1 <0>        -0.1326
     15 Br1         1.0584   -4.8369   -0.3464 Br        1 <0>        -0.0474
     16 C12        -0.1853    1.2075    2.6097 C.3       1 <0>         0.0758
     17 C13        -0.7181    1.5718    1.2479 C.2       1 <0>        -0.1614
     18 C14        -1.7944    2.3110    1.1419 C.2       1 <0>        -0.1792
     19 C15        -0.0127    1.0858    0.0080 C.3       1 <0>        -0.1249
     20 N2         -4.1349   -4.0536    2.5681 N.am      1 <0>        -0.7280
     21 C16        -4.2722   -5.0957    1.7244 C.2       1 <0>         0.6040
     22 O1         -3.3970   -5.9380    1.6504 O.2       1 <0>        -0.5186
     23 C17        -5.4763   -5.2145    0.8956 C.2       1 <0>        -0.0820
     24 C18        -5.7388   -6.2113    0.0002 C.2       1 <0>        -0.1190
     25 C19        -6.9943   -5.9296   -0.5606 C.2       1 <0>        -0.2241
     26 C20        -7.4334   -4.7827    0.0032 C.2       1 <0>        -0.0060
     27 O2         -6.5160   -4.3549    0.8801 O.3       1 <0>        -0.1663
     28 H3         -3.2710   -5.8131    4.4112 H         1 <0>         0.0626
     29 H4         -3.9787   -4.3816    5.2339 H         1 <0>         0.0593
     30 H5         -2.2064   -4.6680    5.2957 H         1 <0>         0.0682
     31 H6         -3.6122   -2.0656    4.2421 H         1 <0>         0.0785
     32 H7         -1.8578   -2.3870    4.4556 H         1 <0>         0.0872
     33 H8         -2.5305    0.4498    1.9988 H         1 <0>         0.0805
     34 H9         -2.7193    0.0848    3.7474 H         1 <0>         0.0985
     35 H10        -1.4693   -3.9310    0.8882 H         1 <0>         0.1310
     36 H11         2.5389   -2.4895    0.6621 H         1 <0>         0.1357
     37 H12         1.9196   -0.5357    2.0149 H         1 <0>         0.1299
     38 H13        -0.5074    1.9613    3.3432 H         1 <0>         0.0927
     39 H14         0.9137    1.1743    2.5766 H         1 <0>         0.0895
     40 H15        -2.1833    2.5769    0.1479 H         1 <0>         0.1034
     41 H16        -2.3093    2.6658    2.0469 H         1 <0>         0.1029
     42 H17        -0.5448    1.4502   -0.8832 H         1 <0>         0.0614
     43 H18         0.0023   -0.0141    0.0020 H         1 <0>         0.0701
     44 H19         1.0193    1.4666    0.0002 H         1 <0>         0.0680
     45 H20        -4.9260   -3.2922    2.6350 H         1 <0>         0.4235
     46 H21        -5.1042   -7.0542   -0.2305 H         1 <0>         0.1599
     47 H22        -7.5104   -6.5166   -1.3060 H         1 <0>         0.1574
     48 H23        -8.3697   -4.2917   -0.2174 H         1 <0>         0.2110
@<TRIPOS>BOND
     1    1    2 1
     2    1   28 1
     3    1   29 1
     4    1   30 1
     5    2    3 1
     6    2    4 1
     7    2   20 1
     8    4    5 1
     9    4   31 1
    10    4   32 1
    11    5    6 1
    12    5   10 1
    13    5    7 1
    14    7    8 1
    15    7   33 1
    16    7   34 1
    17    8    9 1
    18    8   16 1
    19    9   14 ar
    20    9   10 ar
    21   10   11 ar
    22   11   12 ar
    23   11   35 1
    24   12   13 ar
    25   12   15 1
    26   13   14 ar
    27   13   36 1
    28   14   37 1
    29   16   17 1
    30   16   38 1
    31   16   39 1
    32   17   18 2
    33   17   19 1
    34   18   40 1
    35   18   41 1
    36   19   42 1
    37   19   43 1
    38   19   44 1
    39   20   21 am
    40   20   45 1
    41   21   22 2
    42   21   23 1
    43   23   27 1
    44   23   24 2
    45   24   25 1
    46   24   46 1
    47   25   26 2
    48   25   47 1
    49   26   27 1
    50   26   48 1
@<TRIPOS>MOLECULE
ZINC46813310
   49    52     0     0     0
SMALL
USER_CHARGES

@<TRIPOS>ATOM
      1 C1         -0.0167    1.3781    0.0096 C.ar      1 <0>        -0.1166
      2 C2          1.1709    2.0855    0.0021 C.ar      1 <0>        -0.1172
      3 C3          2.3773    1.4107   -0.0130 C.ar      1 <0>        -0.1006
      4 C4          2.3960    0.0285   -0.0201 C.ar      1 <0>        -0.0923
      5 C5          1.2084   -0.6789   -0.0117 C.ar      1 <0>        -0.1035
      6 C6          0.0021   -0.0041    0.0020 C.ar      1 <0>        -0.1204
      7 C7          3.7112   -0.7071   -0.0376 C.3       1 <0>         0.2305
      8 H1          4.5034   -0.0434    0.3089 H         1 <0>         0.1073
      9 C8          4.0144   -1.1607   -1.4423 C.ar      1 <0>        -0.0845
     10 C9          3.4067   -2.2944   -1.9487 C.ar      1 <0>        -0.0990
     11 C10         3.6845   -2.7109   -3.2370 C.ar      1 <0>        -0.1048
     12 C11         4.5709   -1.9929   -4.0199 C.ar      1 <0>        -0.0316
     13 C12         5.1788   -0.8583   -3.5126 C.ar      1 <0>        -0.1042
     14 C13         4.8959   -0.4396   -2.2261 C.ar      1 <0>        -0.0906
     15 Cl1         4.9207   -2.5157   -5.6379 Cl        1 <0>        -0.0649
     16 N1          3.6301   -1.8734    0.8453 N.am      1 <0>        -0.7270
     17 C14         3.8709   -1.7379    2.1645 C.2       1 <0>         0.5175
     18 O1          4.1546   -0.6506    2.6206 O.2       1 <0>        -0.5183
     19 C15         3.7875   -2.9376    3.0727 C.3       1 <0>        -0.1008
     20 C16         4.0982   -2.5196    4.4869 C.ar      1 <0>        -0.0780
     21 C17         5.4031   -2.5468    4.9435 C.ar      1 <0>        -0.0783
     22 C18         5.6909   -2.1647    6.2392 C.ar      1 <0>        -0.1169
     23 C19         4.6685   -1.7527    7.0833 C.ar      1 <0>         0.1616
     24 C20         3.3593   -1.7260    6.6218 C.ar      1 <0>        -0.1391
     25 C21         3.0784   -2.1043    5.3234 C.ar      1 <0>        -0.0752
     26 N2          4.9574   -1.3647    8.3991 N.pl3     1 <0>        -0.3233
     27 C22         4.0600   -0.9498    9.3217 C.2       1 <0>         0.0520
     28 C23         4.7380   -0.6707   10.4590 C.2       1 <0>        -0.2611
     29 C24         6.0943   -0.9228   10.2249 C.2       1 <0>         0.0561
     30 N3          6.2260   -1.3440    8.9928 N.2       1 <0>        -0.2907
     31 H2         -0.9591    1.9053    0.0259 H         1 <0>         0.1222
     32 H3          1.1563    3.1654    0.0076 H         1 <0>         0.1237
     33 H4          3.3051    1.9634   -0.0196 H         1 <0>         0.1222
     34 H5          1.2231   -1.7588   -0.0176 H         1 <0>         0.1164
     35 H6         -0.9258   -0.5567    0.0082 H         1 <0>         0.1221
     36 H7          2.7151   -2.8550   -1.3373 H         1 <0>         0.1296
     37 H8          3.2099   -3.5969   -3.6323 H         1 <0>         0.1368
     38 H9          5.8710   -0.2976   -4.1231 H         1 <0>         0.1376
     39 H10         5.3667    0.4487   -1.8316 H         1 <0>         0.1355
     40 H11         3.4032   -2.7430    0.4805 H         1 <0>         0.4007
     41 H12         2.7820   -3.3563    3.0302 H         1 <0>         0.1063
     42 H13         4.5079   -3.6889    2.7493 H         1 <0>         0.1071
     43 H14         6.1980   -2.8674    4.2864 H         1 <0>         0.1305
     44 H15         6.7102   -2.1868    6.5955 H         1 <0>         0.1382
     45 H16         2.5619   -1.4063    7.2762 H         1 <0>         0.1304
     46 H17         2.0608   -2.0796    4.9625 H         1 <0>         0.1309
     47 H18         2.9938   -0.8576    9.1768 H         1 <0>         0.1777
     48 H19         4.3082   -0.3156   11.3840 H         1 <0>         0.1551
     49 H20         6.8942   -0.7958   10.9393 H         1 <0>         0.1908
@<TRIPOS>BOND
     1    1    6 ar
     2    1    2 ar
     3    1   31 1
     4    2    3 ar
     5    2   32 1
     6    3    4 ar
     7    3   33 1
     8    4    5 ar
     9    4    7 1
    10    5    6 ar
    11    5   34 1
    12    6   35 1
    13    7    8 1
    14    7    9 1
    15    7   16 1
    16    9   14 ar
    17    9   10 ar
    18   10   11 ar
    19   10   36 1
    20   11   12 ar
    21   11   37 1
    22   12   13 ar
    23   12   15 1
    24   13   14 ar
    25   13   38 1
    26   14   39 1
    27   16   17 am
    28   16   40 1
    29   17   18 2
    30   17   19 1
    31   19   20 1
    32   19   41 1
    33   19   42 1
    34   20   25 ar
    35   20   21 ar
    36   21   22 ar
    37   21   43 1
    38   22   23 ar
    39   22   44 1
    40   23   24 ar
    41   23   26 1
    42   24   25 ar
    43   24   45 1
    44   25   46 1
    45   26   30 1
    46   26   27 1
    47   27   28 2
    48   27   47 1
    49   28   29 1
    50   28   48 1
    51   29   30 2
    52   29   49 1
@<TRIPOS>MOLECULE
ZINC04817177
   51    53     0     0     0
SMALL
USER_CHARGES
2-[4-(4-ethoxyphenyl)thiazol-2-yl]-3-(2-isopropylphenyl)amino-prop-2-enenitrile
@<TRIPOS>ATOM
      1 C1          6.1512    9.3697   -0.0926 C.3       1 <0>        -0.1536
      2 C2          4.8479    8.5682   -0.0839 C.3       1 <0>         0.0532
      3 O1          5.1480    7.1711   -0.0741 O.3       1 <0>        -0.3149
      4 C3          4.0936    6.3136   -0.0655 C.ar      1 <0>         0.1398
      5 C4          4.3153    4.9434   -0.0558 C.ar      1 <0>        -0.1551
      6 C5          3.2473    4.0705   -0.0470 C.ar      1 <0>        -0.0425
      7 C6          1.9444    4.5657   -0.0485 C.ar      1 <0>        -0.0689
      8 C7          1.7250    5.9421   -0.0641 C.ar      1 <0>        -0.0606
      9 C8          2.7972    6.8099   -0.0670 C.ar      1 <0>        -0.2104
     10 C9          0.7934    3.6297   -0.0396 C.2       1 <0>         0.1198
     11 C10        -0.4878    4.1112   -0.0409 C.2       1 <0>        -0.2058
     12 S1         -1.4171    2.5835   -0.0367 S.3       1 <0>         0.0081
     13 C11        -0.0179    1.4713   -0.0232 C.2       1 <0>         0.2007
     14 N1          0.9965    2.3236   -0.0308 N.2       1 <0>        -0.5027
     15 C12         0.0022   -0.0043   -0.0129 C.2       1 <0>        -0.1138
     16 C13        -1.1688   -0.7016   -0.0062 C.2       1 <0>         0.2407
     17 N2         -1.1502   -2.0680    0.0034 N.pl3     1 <0>        -0.6333
     18 C14        -2.3505   -2.7829    0.0103 C.ar      1 <0>         0.1507
     19 C15        -3.5607   -2.1106    0.1302 C.ar      1 <0>        -0.1596
     20 C16        -4.7451   -2.8203    0.1362 C.ar      1 <0>        -0.0844
     21 C17        -4.7279   -4.1987    0.0230 C.ar      1 <0>        -0.1365
     22 C18        -3.5255   -4.8708   -0.0970 C.ar      1 <0>        -0.0786
     23 C19        -2.3372   -4.1668   -0.1086 C.ar      1 <0>        -0.1076
     24 C20        -1.0275   -4.8997   -0.2447 C.3       1 <0>        -0.0561
     25 C21        -0.9220   -5.9632    0.8502 C.3       1 <0>        -0.1461
     26 C22        -0.9598   -5.5725   -1.6172 C.3       1 <0>        -0.1451
     27 C23         1.2519   -0.7034   -0.0100 C.1       1 <0>         0.2646
     28 N3          2.2434   -1.2579   -0.0077 N.1       1 <0>        -0.4137
     29 H1          6.7317    9.1290    0.7980 H         1 <0>         0.0669
     30 H2          6.7280    9.1157   -0.9819 H         1 <0>         0.0669
     31 H3          5.9223   10.4354   -0.1001 H         1 <0>         0.0795
     32 H4          4.2674    8.8089   -0.9745 H         1 <0>         0.0631
     33 H5          4.2711    8.8222    0.8054 H         1 <0>         0.0631
     34 H6          5.3250    4.5603   -0.0546 H         1 <0>         0.1336
     35 H7          3.4204    3.0045   -0.0394 H         1 <0>         0.1388
     36 H8          0.7166    6.3288   -0.0694 H         1 <0>         0.1282
     37 H9          2.6279    7.8765   -0.0746 H         1 <0>         0.1317
     38 H10        -0.8402    5.1320   -0.0478 H         1 <0>         0.1999
     39 H11        -2.1113   -0.1744   -0.0084 H         1 <0>         0.1762
     40 H12        -0.3036   -2.5415    0.0053 H         1 <0>         0.4159
     41 H13        -3.5749   -1.0344    0.2190 H         1 <0>         0.1303
     42 H14        -5.6861   -2.2984    0.2291 H         1 <0>         0.1316
     43 H15        -5.6558   -4.7513    0.0280 H         1 <0>         0.1279
     44 H16        -3.5157   -5.9471   -0.1856 H         1 <0>         0.1300
     45 H17        -0.2037   -4.1930   -0.1454 H         1 <0>         0.0653
     46 H18        -1.7459   -6.6699    0.7510 H         1 <0>         0.0622
     47 H19         0.0253   -6.4933    0.7518 H         1 <0>         0.0622
     48 H20        -0.9702   -5.4839    1.8280 H         1 <0>         0.0575
     49 H21        -1.0350   -4.8149   -2.3973 H         1 <0>         0.0569
     50 H22        -0.0125   -6.1026   -1.7157 H         1 <0>         0.0622
     51 H23        -1.7837   -6.2792   -1.7165 H         1 <0>         0.0619
@<TRIPOS>BOND
     1    1    2 1
     2    1   29 1
     3    1   30 1
     4    1   31 1
     5    2    3 1
     6    2   32 1
     7    2   33 1
     8    3    4 1
     9    4    9 ar
    10    4    5 ar
    11    5    6 ar
    12    5   34 1
    13    6    7 ar
    14    6   35 1
    15    7    8 ar
    16    7   10 1
    17    8    9 ar
    18    8   36 1
    19    9   37 1
    20   10   14 1
    21   10   11 2
    22   11   12 1
    23   11   38 1
    24   12   13 1
    25   13   14 2
    26   13   15 1
    27   15   16 2
    28   15   27 1
    29   16   17 1
    30   16   39 1
    31   17   18 1
    32   17   40 1
    33   18   23 ar
    34   18   19 ar
    35   19   20 ar
    36   19   41 1
    37   20   21 ar
    38   20   42 1
    39   21   22 ar
    40   21   43 1
    41   22   23 ar
    42   22   44 1
    43   23   24 1
    44   24   25 1
    45   24   26 1
    46   24   45 1
    47   25   46 1
    48   25   47 1
    49   25   48 1
    50   26   49 1
    51   26   50 1
    52   26   51 1
    53   27   28 3
@<TRIPOS>MOLECULE
ZINC01496266
   48    50     0     0     0
SMALL
USER_CHARGES
N-[4-(4,6-dimethylpyrimidin-2-yl)sulfanylphenyl]-4-ethylsulfanyl-benzamide
@<TRIPOS>ATOM
      1 C1          7.6768    4.0132    0.3629 C.3       1 <0>        -0.1397
      2 C2          6.3165    3.3168    0.2893 C.3       1 <0>        -0.1144
      3 S1          5.2059    4.2709   -0.7816 S.3       1 <0>        -0.1012
      4 C3          3.7027    3.3517   -0.7636 C.ar      1 <0>        -0.0531
      5 C4          2.6048    3.8004   -1.4941 C.ar      1 <0>        -0.1089
      6 C5          1.4338    3.0877   -1.4816 C.ar      1 <0>        -0.0320
      7 C6          1.3424    1.9087   -0.7350 C.ar      1 <0>        -0.1494
      8 C7          2.4448    1.4633    0.0012 C.ar      1 <0>        -0.0611
      9 C8          3.6148    2.1775   -0.0193 C.ar      1 <0>        -0.1435
     10 C9          0.0842    1.1401   -0.7191 C.2       1 <0>         0.5633
     11 O1         -0.8739    1.5285   -1.3598 O.2       1 <0>        -0.5097
     12 N1         -0.0025    0.0041    0.0009 N.am      1 <0>        -0.6726
     13 C10        -1.2262   -0.6693    0.1019 C.ar      1 <0>         0.1830
     14 C11        -2.4151    0.0488    0.1115 C.ar      1 <0>        -0.1298
     15 C12        -3.6217   -0.6151    0.2054 C.ar      1 <0>        -0.0311
     16 C13        -3.6463   -2.0008    0.3013 C.ar      1 <0>        -0.1523
     17 C14        -2.4568   -2.7185    0.2974 C.ar      1 <0>        -0.0304
     18 C15        -1.2507   -2.0546    0.1982 C.ar      1 <0>        -0.1556
     19 S2         -5.1861   -2.8481    0.4273 S.3       1 <0>         0.1104
     20 C16        -5.4478   -2.7500    2.1670 C.ar      1 <0>         0.2900
     21 N2         -4.4996   -2.2338    2.9360 N.ar      1 <0>        -0.5182
     22 C17        -4.6666   -2.1406    4.2446 C.ar      1 <0>         0.1898
     23 C18        -5.8456   -2.6010    4.8104 C.ar      1 <0>        -0.2395
     24 C19        -6.8141   -3.1401    3.9778 C.ar      1 <0>         0.1911
     25 N3         -6.5862   -3.1990    2.6764 N.ar      1 <0>        -0.5100
     26 C20        -8.1112   -3.6524    4.5488 C.3       1 <0>        -0.1073
     27 C21        -3.5860   -1.5468    5.1110 C.3       1 <0>        -0.1058
     28 H1          8.3442    3.4399    1.0064 H         1 <0>         0.0783
     29 H2          8.1053    4.0803   -0.6372 H         1 <0>         0.0681
     30 H3          7.5502    5.0156    0.7718 H         1 <0>         0.0680
     31 H4          5.8881    3.2498    1.2893 H         1 <0>         0.0902
     32 H5          6.4432    2.3144   -0.1197 H         1 <0>         0.0903
     33 H6          2.6760    4.7110   -2.0705 H         1 <0>         0.1388
     34 H7          0.5829    3.4360   -2.0482 H         1 <0>         0.1447
     35 H8          2.3758    0.5554    0.5820 H         1 <0>         0.1291
     36 H9          4.4679    1.8316    0.5455 H         1 <0>         0.1313
     37 H10         0.7828   -0.3472    0.4491 H         1 <0>         0.4116
     38 H11        -2.3957    1.1263    0.0411 H         1 <0>         0.1400
     39 H12        -4.5463   -0.0571    0.2081 H         1 <0>         0.1314
     40 H13        -2.4757   -3.7957    0.3723 H         1 <0>         0.1342
     41 H14        -0.3259   -2.6125    0.1952 H         1 <0>         0.1320
     42 H15        -6.0059   -2.5412    5.8767 H         1 <0>         0.1470
     43 H16        -8.0053   -4.7073    4.8020 H         1 <0>         0.0874
     44 H17        -8.3617   -3.0868    5.4463 H         1 <0>         0.0825
     45 H18        -8.9049   -3.5338    3.8112 H         1 <0>         0.0845
     46 H19        -2.9064   -2.3349    5.4354 H         1 <0>         0.0858
     47 H20        -3.0319   -0.8012    4.5408 H         1 <0>         0.0814
     48 H21        -4.0380   -1.0750    5.9834 H         1 <0>         0.0818
@<TRIPOS>BOND
     1    1    2 1
     2    1   28 1
     3    1   29 1
     4    1   30 1
     5    2    3 1
     6    2   31 1
     7    2   32 1
     8    3    4 1
     9    4    9 ar
    10    4    5 ar
    11    5    6 ar
    12    5   33 1
    13    6    7 ar
    14    6   34 1
    15    7    8 ar
    16    7   10 1
    17    8    9 ar
    18    8   35 1
    19    9   36 1
    20   10   11 2
    21   10   12 am
    22   12   13 1
    23   12   37 1
    24   13   18 ar
    25   13   14 ar
    26   14   15 ar
    27   14   38 1
    28   15   16 ar
    29   15   39 1
    30   16   17 ar
    31   16   19 1
    32   17   18 ar
    33   17   40 1
    34   18   41 1
    35   19   20 1
    36   20   25 ar
    37   20   21 ar
    38   21   22 ar
    39   22   23 ar
    40   22   27 1
    41   23   24 ar
    42   23   42 1
    43   24   25 ar
    44   24   26 1
    45   26   43 1
    46   26   44 1
    47   26   45 1
    48   27   46 1
    49   27   47 1
    50   27   48 1
@<TRIPOS>MOLECULE
ZINC22041928
   35    36     0     0     0
SMALL
USER_CHARGES
(2R)-N-(2,3-dichlorophenyl)-2-[(5-ethylsulfanyl-1,3,4-thiadiazol-2-yl)sulfanyl]propanamide
@<TRIPOS>ATOM
      1 C1          0.0904    0.0015    0.0172 C.3       1 <0>        -0.1429
      2 C2          0.0578    1.5312    0.0236 C.3       1 <0>        -0.1181
      3 S1         -0.7958    2.1116    1.5153 S.3       1 <0>         0.0526
      4 C3         -0.7506    3.8675    1.3763 C.2       1 <0>         0.0567
      5 N1         -0.2281    4.6176    0.4251 N.2       1 <0>        -0.3028
      6 N2         -0.3050    5.9883    0.5146 N.2       1 <0>        -0.2990
      7 C4         -0.9009    6.5459    1.5510 C.2       1 <0>         0.0361
      8 S2         -1.4069    5.1077    2.4817 S.3       1 <0>         0.0709
      9 S3         -1.1404    8.2530    1.9159 S.3       1 <0>         0.1567
     10 C5         -0.3676    9.1132    0.5182 C.3       1 <0>        -0.1282
     11 H1         -0.6963    8.8791   -0.5051 H         1 <0>         0.1302
     12 C6          1.1379    8.8406    0.5209 C.3       1 <0>        -0.1519
     13 C7         -0.6100   10.5952    0.6443 C.2       1 <0>         0.5415
     14 O1         -0.8164   11.0854    1.7344 O.2       1 <0>        -0.5006
     15 N3         -0.5975   11.3759   -0.4542 N.am      1 <0>        -0.6755
     16 C8         -0.9150   12.7353   -0.3504 C.ar      1 <0>         0.1728
     17 C9         -0.5537   13.4495    0.7844 C.ar      1 <0>        -0.1083
     18 C10        -0.8675   14.7908    0.8844 C.ar      1 <0>        -0.0807
     19 C11        -1.5412   15.4240   -0.1439 C.ar      1 <0>        -0.1123
     20 C12        -1.9032   14.7165   -1.2766 C.ar      1 <0>        -0.0131
     21 C13        -1.5871   13.3741   -1.3849 C.ar      1 <0>        -0.0621
     22 Cl1        -2.0352   12.4876   -2.8087 Cl        1 <0>        -0.0413
     23 Cl2        -2.7483   15.5156   -2.5654 Cl        1 <0>        -0.0408
     24 H2          0.6080   -0.3504   -0.8874 H         1 <0>         0.0859
     25 H3         -0.9386   -0.3872    0.0255 H         1 <0>         0.0704
     26 H4          0.6252   -0.3576    0.9089 H         1 <0>         0.0705
     27 H5          1.0868    1.9199    0.0153 H         1 <0>         0.1004
     28 H6         -0.4770    1.8903   -0.8680 H         1 <0>         0.1003
     29 H7          1.6065    9.3622   -0.3267 H         1 <0>         0.0772
     30 H8          1.3148    7.7588    0.4288 H         1 <0>         0.0887
     31 H9          1.5748    9.2048    1.4625 H         1 <0>         0.0775
     32 H10        -0.3378   10.9449   -1.4324 H         1 <0>         0.4424
     33 H11        -0.0278   12.9562    1.5885 H         1 <0>         0.1555
     34 H12        -0.5867   15.3458    1.7673 H         1 <0>         0.1454
     35 H13        -1.7855   16.4729   -0.0626 H         1 <0>         0.1460
@<TRIPOS>BOND
     1    1    2 1
     2    1   24 1
     3    1   25 1
     4    1   26 1
     5    2    3 1
     6    2   27 1
     7    2   28 1
     8    3    4 1
     9    4    8 1
    10    4    5 2
    11    5    6 1
    12    6    7 2
    13    7    8 1
    14    7    9 1
    15    9   10 1
    16   10   11 1
    17   10   12 1
    18   10   13 1
    19   12   29 1
    20   12   30 1
    21   12   31 1
    22   13   14 2
    23   13   15 am
    24   15   16 1
    25   15   32 1
    26   16   21 ar
    27   16   17 ar
    28   17   18 ar
    29   17   33 1
    30   18   19 ar
    31   18   34 1
    32   19   20 ar
    33   19   35 1
    34   20   21 ar
    35   20   23 1
    36   21   22 1
@<TRIPOS>MOLECULE
ZINC28252061
   46    47     0     0     0
SMALL
USER_CHARGES
4-bromo-N-[(1S,2S)-2-methylcyclohexyl]-3-propoxy-benzenesulfonamide
@<TRIPOS>ATOM
      1 C1          5.9809    9.2800   -1.1851 C.3       1 <0>        -0.1532
      2 C2          4.7787    9.1226   -2.1182 C.3       1 <0>        -0.1230
      3 C3          4.5118    7.6356   -2.3597 C.3       1 <0>         0.0482
      4 O1          3.3889    7.4886   -3.2313 O.3       1 <0>        -0.2974
      5 C4          3.0164    6.2207   -3.5492 C.ar      1 <0>         0.1424
      6 C5          3.7171    5.1405   -3.0331 C.ar      1 <0>        -0.1054
      7 C6          3.3369    3.8528   -3.3581 C.ar      1 <0>        -0.6302
      8 C7          2.2619    3.6397   -4.2014 C.ar      1 <0>        -0.0565
      9 C8          1.5582    4.7139   -4.7133 C.ar      1 <0>        -0.0711
     10 C9          1.9345    6.0045   -4.3913 C.ar      1 <0>        -0.0774
     11 Br1         0.9757    7.4739   -5.0968 Br        1 <0>        -0.0186
     12 S1          4.2272    2.4805   -2.7031 S.o2      1 <0>         2.6889
     13 O2          5.5275    2.9556   -2.3828 O.2       1 <0>        -0.9560
     14 O3          4.0108    1.3940   -3.5929 O.2       1 <0>        -0.9453
     15 N1          3.5073    2.0690   -1.2696 N.pl3     1 <0>        -1.1159
     16 C10         2.1328    1.5619   -1.2592 C.3       1 <0>         0.1630
     17 H1          1.6379    1.9476   -2.1627 H         1 <0>         0.0767
     18 C11         2.1536    0.0321   -1.2676 C.3       1 <0>        -0.1356
     19 C12         0.7182   -0.4975   -1.2568 C.3       1 <0>        -0.1203
     20 C13         0.0021   -0.0041    0.0020 C.3       1 <0>        -0.1241
     21 C14        -0.0187    1.5258    0.0104 C.3       1 <0>        -0.1145
     22 C15         1.4167    2.0553   -0.0004 C.3       1 <0>        -0.0947
     23 H2          1.9487    1.6908    0.8907 H         1 <0>         0.0822
     24 C16         1.3960    3.5852    0.0080 C.3       1 <0>        -0.1532
     25 H3          6.1728   10.3491   -1.0115 H         1 <0>         0.0679
     26 H4          6.8663    8.8188   -1.6469 H         1 <0>         0.0601
     27 H5          5.7679    8.7852   -0.2260 H         1 <0>         0.0591
     28 H6          3.8933    9.5838   -1.6564 H         1 <0>         0.0764
     29 H7          4.9917    9.6174   -3.0773 H         1 <0>         0.0770
     30 H8          5.3973    7.1744   -2.8215 H         1 <0>         0.0702
     31 H9          4.2988    7.1408   -1.4006 H         1 <0>         0.0677
     32 H10         4.5591    5.3061   -2.3773 H         1 <0>         0.1518
     33 H11         1.9693    2.6322   -4.4576 H         1 <0>         0.1507
     34 H12         0.7162    4.5447   -5.3681 H         1 <0>         0.1504
     35 H13         4.0036    2.3322   -0.3239 H         1 <0>         0.4419
     36 H14         2.6685   -0.3226   -2.1726 H         1 <0>         0.0795
     37 H15         2.6856   -0.3323   -0.3764 H         1 <0>         0.0722
     38 H16         0.1862   -0.1331   -2.1480 H         1 <0>         0.0644
     39 H17         0.7331   -1.5974   -1.2629 H         1 <0>         0.0685
     40 H18        -1.0299   -0.3849    0.0098 H         1 <0>         0.0650
     41 H19         0.5341   -0.3685    0.8932 H         1 <0>         0.0642
     42 H20        -0.5507    1.8901   -0.8808 H         1 <0>         0.0651
     43 H21        -0.5336    1.8806    0.9154 H         1 <0>         0.0683
     44 H22         0.8811    3.9399    0.9130 H         1 <0>         0.0604
     45 H23         0.8640    3.9496   -0.8832 H         1 <0>         0.0554
     46 H24         2.4280    3.9659    0.0002 H         1 <0>         0.0550
@<TRIPOS>BOND
     1    1    2 1
     2    1   25 1
     3    1   26 1
     4    1   27 1
     5    2    3 1
     6    2   28 1
     7    2   29 1
     8    3    4 1
     9    3   30 1
    10    3   31 1
    11    4    5 1
    12    5   10 ar
    13    5    6 ar
    14    6    7 ar
    15    6   32 1
    16    7    8 ar
    17    7   12 1
    18    8    9 ar
    19    8   33 1
    20    9   10 ar
    21    9   34 1
    22   10   11 1
    23   12   13 2
    24   12   14 2
    25   12   15 1
    26   15   16 1
    27   15   35 1
    28   16   17 1
    29   16   22 1
    30   16   18 1
    31   18   19 1
    32   18   36 1
    33   18   37 1
    34   19   20 1
    35   19   38 1
    36   19   39 1
    37   20   21 1
    38   20   40 1
    39   20   41 1
    40   21   22 1
    41   21   42 1
    42   21   43 1
    43   22   23 1
    44   22   24 1
    45   24   44 1
    46   24   45 1
    47   24   46 1
@<TRIPOS>MOLECULE
ZINC42628394
   54    57     0     0     0
SMALL
USER_CHARGES

@<TRIPOS>ATOM
      1 C1         -0.0187    1.5258    0.0104 C.3       1 <0>        -0.1533
      2 C2          0.0021   -0.0041    0.0020 C.3       1 <0>         0.0546
      3 O1         -1.3386   -0.4987    0.0122 O.3       1 <0>        -0.3171
      4 C3         -1.4983   -1.8483    0.0064 C.ar      1 <0>         0.1307
      5 C4         -0.3876   -2.6794   -0.0028 C.ar      1 <0>        -0.2094
      6 C5         -0.5526   -4.0509   -0.0082 C.ar      1 <0>        -0.0733
      7 C6         -1.8235   -4.5955   -0.0047 C.ar      1 <0>        -0.1149
      8 C7         -2.9322   -3.7693    0.0041 C.ar      1 <0>        -0.0567
      9 C8         -2.7724   -2.3972    0.0157 C.ar      1 <0>        -0.1527
     10 C9         -2.0007   -6.0920   -0.0110 C.3       1 <0>         0.0995
     11 N1         -2.0517   -6.5849    1.3719 N.3       1 <0>        -0.5310
     12 C10        -0.7650   -6.3830    2.0503 C.3       1 <0>         0.0502
     13 C11        -0.8976   -6.7719    3.5245 C.3       1 <0>        -0.1152
     14 C12        -1.3234   -8.2394    3.6238 C.3       1 <0>        -0.1108
     15 C13        -2.6412   -8.4325    2.8683 C.3       1 <0>        -0.0006
     16 H1         -3.4198   -7.8287    3.3345 H         1 <0>         0.0939
     17 C14        -2.4581   -7.9954    1.4132 C.3       1 <0>         0.0684
     18 C15        -3.0378   -9.8857    2.9119 C.2       1 <0>         0.1123
     19 C16        -4.2249  -10.4024    3.4661 C.2       1 <0>        -0.2072
     20 C17        -4.2002  -11.7565    3.3028 C.2       1 <0>         0.0894
     21 N2         -3.0487  -12.0707    2.6744 N.pl3     1 <0>        -0.4698
     22 N3         -2.3426  -10.8852    2.4369 N.2       1 <0>        -0.2839
     23 H2         -2.7610  -12.9634    2.4269 H         1 <0>         0.4438
     24 C18        -5.3069   -9.6160    4.1111 C.ar      1 <0>        -0.0777
     25 C19        -6.3697   -9.1315    3.3494 C.ar      1 <0>         0.1434
     26 C20        -7.3740   -8.3998    3.9559 C.ar      1 <0>        -0.1653
     27 C21        -7.3261   -8.1484    5.3149 C.ar      1 <0>        -0.0586
     28 C22        -6.2746   -8.6258    6.0757 C.ar      1 <0>        -0.1659
     29 C23        -5.2673   -9.3640    5.4821 C.ar      1 <0>         0.1419
     30 F1         -4.2438   -9.8349    6.2277 F         1 <0>        -0.1259
     31 F2         -6.4177   -9.3759    2.0216 F         1 <0>        -0.1256
     32 H3          1.0039    1.9031    0.0027 H         1 <0>         0.0788
     33 H4         -0.5459    1.8868   -0.8726 H         1 <0>         0.0666
     34 H5         -0.5289    1.8773    0.9072 H         1 <0>         0.0668
     35 H6          0.5123   -0.3556   -0.8948 H         1 <0>         0.0615
     36 H7          0.5293   -0.3651    0.8851 H         1 <0>         0.0617
     37 H8          0.6053   -2.2545   -0.0062 H         1 <0>         0.1260
     38 H9          0.3118   -4.6984   -0.0154 H         1 <0>         0.1207
     39 H10        -3.9238   -4.1971    0.0064 H         1 <0>         0.1299
     40 H11        -3.6386   -1.7523    0.0270 H         1 <0>         0.1301
     41 H12        -2.9297   -6.3458   -0.5217 H         1 <0>         0.0835
     42 H13        -1.1620   -6.5550   -0.5311 H         1 <0>         0.0422
     43 H14        -0.0040   -7.0040    1.5778 H         1 <0>         0.0330
     44 H15        -0.4758   -5.3347    1.9758 H         1 <0>         0.0809
     45 H16         0.0617   -6.6368    4.0241 H         1 <0>         0.0698
     46 H17        -1.6487   -6.1420    4.0009 H         1 <0>         0.0726
     47 H18        -0.5541   -8.8726    3.1820 H         1 <0>         0.0667
     48 H19        -1.4611   -8.5086    4.6710 H         1 <0>         0.0663
     49 H20        -3.3986   -8.1182    0.8760 H         1 <0>         0.0760
     50 H21        -1.6891   -8.6089    0.9437 H         1 <0>         0.0419
     51 H22        -4.9643  -12.4511    3.6192 H         1 <0>         0.1802
     52 H23        -8.1975   -8.0237    3.3670 H         1 <0>         0.1438
     53 H24        -8.1130   -7.5764    5.7840 H         1 <0>         0.1445
     54 H25        -6.2426   -8.4258    7.1365 H         1 <0>         0.1436
@<TRIPOS>BOND
     1    1    2 1
     2    1   32 1
     3    1   33 1
     4    1   34 1
     5    2    3 1
     6    2   35 1
     7    2   36 1
     8    3    4 1
     9    4    9 ar
    10    4    5 ar
    11    5    6 ar
    12    5   37 1
    13    6    7 ar
    14    6   38 1
    15    7    8 ar
    16    7   10 1
    17    8    9 ar
    18    8   39 1
    19    9   40 1
    20   10   11 1
    21   10   41 1
    22   10   42 1
    23   11   17 1
    24   11   12 1
    25   12   13 1
    26   12   43 1
    27   12   44 1
    28   13   14 1
    29   13   45 1
    30   13   46 1
    31   14   15 1
    32   14   47 1
    33   14   48 1
    34   15   16 1
    35   15   17 1
    36   15   18 1
    37   17   49 1
    38   17   50 1
    39   18   19 1
    40   18   22 2
    41   19   24 1
    42   19   20 2
    43   20   51 1
    44   20   21 1
    45   21   23 1
    46   21   22 1
    47   24   29 ar
    48   24   25 ar
    49   25   26 ar
    50   25   31 1
    51   26   27 ar
    52   26   52 1
    53   27   28 ar
    54   27   53 1
    55   28   29 ar
    56   28   54 1
    57   29   30 1
@<TRIPOS>MOLECULE
ZINC08230234
   44    47     0     0     0
SMALL
USER_CHARGES
(2-benzothiazol-2-yl-1-piperidyl)-(1,1-dioxothiolan-3-yl)-methanone
@<TRIPOS>ATOM
      1 C1          1.2875   -0.2339    6.8544 C.ar      1 <0>        -0.1117
      2 C2          1.8906    1.0120    6.9576 C.ar      1 <0>        -0.1013
      3 C3          1.7556    1.9195    5.9240 C.ar      1 <0>        -0.0671
      4 C4          1.0266    1.5716    4.8127 C.ar      1 <0>        -0.1488
      5 C5          0.4017    0.3106    4.6802 C.ar      1 <0>         0.0969
      6 C6          0.5634   -0.5876    5.7584 C.ar      1 <0>        -0.0648
      7 N1         -0.2777    0.1414    3.5267 N.2       1 <0>        -0.4827
      8 C7         -0.3394    1.0645    2.6087 C.2       1 <0>         0.1626
      9 S1          0.5869    2.3666    3.2878 S.3       1 <0>         0.0219
     10 C8         -1.0494    1.0157    1.2804 C.3       1 <0>         0.2362
     11 H1         -0.7291    1.8540    0.6616 H         1 <0>         0.1044
     12 C9         -0.7211   -0.3015    0.5706 C.3       1 <0>        -0.1233
     13 C10        -1.5511   -0.4074   -0.7108 C.3       1 <0>        -0.1199
     14 C11        -3.0402   -0.4080   -0.3574 C.3       1 <0>        -0.1392
     15 C12        -3.3956    0.9080    0.3415 C.3       1 <0>         0.1009
     16 N2         -2.5020    1.0878    1.4939 N.am      1 <0>        -0.6040
     17 C13        -3.0045    1.3140    2.7238 C.2       1 <0>         0.5320
     18 O1         -2.2611    1.3814    3.6797 O.2       1 <0>        -0.5012
     19 C14        -4.4902    1.4833    2.9113 C.3       1 <0>        -0.1178
     20 H2         -5.0246    0.7952    2.2563 H         1 <0>         0.1191
     21 C15        -4.8642    1.2020    4.3761 C.3       1 <0>        -0.1100
     22 C16        -6.3107    1.6783    4.6522 C.3       1 <0>        -0.5750
     23 S2         -6.5224    3.0484    3.4437 S.o2      1 <0>         2.3739
     24 O2         -7.5544    2.7034    2.5298 O.2       1 <0>        -0.9298
     25 O3         -6.5960    4.2798    4.1491 O.2       1 <0>        -0.9302
     26 C17        -4.8981    2.9472    2.5798 C.3       1 <0>        -0.5730
     27 H3          1.3956   -0.9400    7.6644 H         1 <0>         0.1316
     28 H4          2.4607    1.2699    7.8379 H         1 <0>         0.1367
     29 H5          2.2191    2.8928    5.9891 H         1 <0>         0.1311
     30 H6          0.1072   -1.5654    5.7121 H         1 <0>         0.1280
     31 H7         -0.9584   -1.1380    1.2279 H         1 <0>         0.0842
     32 H8          0.3395   -0.3253    0.3200 H         1 <0>         0.0820
     33 H9         -1.3316    0.4426   -1.3569 H         1 <0>         0.0696
     34 H10        -1.3008   -1.3324   -1.2303 H         1 <0>         0.0761
     35 H11        -3.6302   -0.5069   -1.2686 H         1 <0>         0.0839
     36 H12        -3.2557   -1.2434    0.3086 H         1 <0>         0.0721
     37 H13        -3.2665    1.7375   -0.3538 H         1 <0>         0.0802
     38 H14        -4.4307    0.8735    0.6811 H         1 <0>         0.0929
     39 H15        -4.7927    0.1316    4.5687 H         1 <0>         0.0998
     40 H16        -4.1771    1.7346    5.0337 H         1 <0>         0.1015
     41 H17        -7.0248    0.8779    4.4581 H         1 <0>         0.1422
     42 H18        -6.4084    2.0455    5.6738 H         1 <0>         0.1461
     43 H19        -4.1853    3.6590    2.9961 H         1 <0>         0.1462
     44 H20        -5.0135    3.0906    1.5055 H         1 <0>         0.1478
@<TRIPOS>BOND
     1    1    6 ar
     2    1    2 ar
     3    1   27 1
     4    2    3 ar
     5    2   28 1
     6    3    4 ar
     7    3   29 1
     8    4    9 1
     9    4    5 ar
    10    5    6 ar
    11    5    7 1
    12    6   30 1
    13    7    8 2
    14    8    9 1
    15    8   10 1
    16   10   11 1
    17   10   16 1
    18   10   12 1
    19   12   13 1
    20   12   31 1
    21   12   32 1
    22   13   14 1
    23   13   33 1
    24   13   34 1
    25   14   15 1
    26   14   35 1
    27   14   36 1
    28   15   16 1
    29   15   37 1
    30   15   38 1
    31   16   17 am
    32   17   18 2
    33   17   19 1
    34   19   20 1
    35   19   26 1
    36   19   21 1
    37   21   22 1
    38   21   39 1
    39   21   40 1
    40   22   23 1
    41   22   41 1
    42   22   42 1
    43   23   24 2
    44   23   25 2
    45   23   26 1
    46   26   43 1
    47   26   44 1
@<TRIPOS>MOLECULE
ZINC32406133
   44    46     0     0     0
SMALL
USER_CHARGES
1-(2-fluoro-5-methyl-phenyl)sulfonyl-4-(4-pyridylmethyl)piperazine
@<TRIPOS>ATOM
      1 C1         -2.3354   11.4977   -3.3596 C.3       1 <0>        -0.1206
      2 C2         -3.3127   10.3959   -3.0401 C.ar      1 <0>        -0.1111
      3 C3         -4.1651   10.5208   -1.9586 C.ar      1 <0>        -0.0383
      4 C4         -5.0613    9.5111   -1.6644 C.ar      1 <0>        -0.1658
      5 C5         -5.1054    8.3737   -2.4530 C.ar      1 <0>         0.1864
      6 C6         -4.2514    8.2497   -3.5355 C.ar      1 <0>        -0.7111
      7 C7         -3.3519    9.2586   -3.8246 C.ar      1 <0>         0.0017
      8 S1         -4.3061    6.8032   -4.5402 S.o2      1 <0>         2.6901
      9 O1         -3.3059    6.9629   -5.5369 O.2       1 <0>        -0.9472
     10 O2         -5.6728    6.5830   -4.8609 O.2       1 <0>        -0.9413
     11 N1         -3.8313    5.5307   -3.5927 N.pl3     1 <0>        -0.9953
     12 C8         -4.8144    4.7581   -2.8182 C.3       1 <0>         0.1198
     13 C9         -4.3344    4.6773   -1.3652 C.3       1 <0>         0.0422
     14 N2         -2.9645    4.1477   -1.3342 N.3       1 <0>        -0.5270
     15 C10        -2.0297    5.0475   -2.0230 C.3       1 <0>         0.0342
     16 C11        -2.4152    5.1435   -3.5030 C.3       1 <0>         0.1244
     17 C12        -2.5298    3.8929    0.0457 C.3       1 <0>         0.0903
     18 C13        -1.2309    3.1289    0.0302 C.ar      1 <0>        -0.0350
     19 C14        -1.2232    1.7424    0.0174 C.ar      1 <0>        -0.1508
     20 C15        -0.0126    1.0758    0.0080 C.ar      1 <0>         0.0998
     21 N3          1.1248    1.7431    0.0007 N.ar      1 <0>        -0.4850
     22 C16         1.1555    3.0614    0.0075 C.ar      1 <0>         0.0996
     23 C17        -0.0153    3.7957    0.0221 C.ar      1 <0>        -0.1712
     24 F1         -5.9815    7.3859   -2.1665 F         1 <0>        -0.1225
     25 H1         -2.4516   12.3135   -2.6310 H         1 <0>         0.0724
     26 H2         -2.5318   11.8797   -4.3723 H         1 <0>         0.0782
     27 H3         -1.3095   11.1040   -3.3087 H         1 <0>         0.0775
     28 H4         -4.1303   11.4079   -1.3435 H         1 <0>         0.1430
     29 H5         -5.7268    9.6087   -0.8194 H         1 <0>         0.1466
     30 H6         -2.6825    9.1601   -4.6664 H         1 <0>         0.1533
     31 H7         -5.7924    5.2597   -2.8630 H         1 <0>         0.1012
     32 H8         -4.9014    3.7465   -3.2414 H         1 <0>         0.0882
     33 H9         -4.3507    5.6818   -0.9173 H         1 <0>         0.0408
     34 H10        -4.9993    4.0112   -0.7959 H         1 <0>         0.0937
     35 H11        -2.0775    6.0464   -1.5649 H         1 <0>         0.0403
     36 H12        -1.0072    4.6519   -1.9341 H         1 <0>         0.0941
     37 H13        -2.2698    4.1693   -3.9926 H         1 <0>         0.0879
     38 H14        -1.7953    5.9017   -4.0038 H         1 <0>         0.0962
     39 H15        -2.3858    4.8505    0.5675 H         1 <0>         0.0492
     40 H16        -3.2964    3.3022    0.5685 H         1 <0>         0.0927
     41 H17        -2.1514    1.1904    0.0184 H         1 <0>         0.1361
     42 H18         0.0021   -0.0041    0.0020 H         1 <0>         0.1565
     43 H19         2.1065    3.5732    0.0011 H         1 <0>         0.1553
     44 H20         0.0163    4.8752    0.0269 H         1 <0>         0.1307
@<TRIPOS>BOND
     1    1    2 1
     2    1   25 1
     3    1   26 1
     4    1   27 1
     5    2    7 ar
     6    2    3 ar
     7    3    4 ar
     8    3   28 1
     9    4    5 ar
    10    4   29 1
    11    5    6 ar
    12    5   24 1
    13    6    7 ar
    14    6    8 1
    15    7   30 1
    16    8    9 2
    17    8   10 2
    18    8   11 1
    19   11   16 1
    20   11   12 1
    21   12   13 1
    22   12   31 1
    23   12   32 1
    24   13   14 1
    25   13   33 1
    26   13   34 1
    27   14   15 1
    28   14   17 1
    29   15   16 1
    30   15   35 1
    31   15   36 1
    32   16   37 1
    33   16   38 1
    34   17   18 1
    35   17   39 1
    36   17   40 1
    37   18   23 ar
    38   18   19 ar
    39   19   20 ar
    40   19   41 1
    41   20   21 ar
    42   20   42 1
    43   21   22 ar
    44   22   23 ar
    45   22   43 1
    46   23   44 1
@<TRIPOS>MOLECULE
ZINC43849676
   36    38     0     0     0
SMALL
USER_CHARGES

@<TRIPOS>ATOM
      1 C1         -0.0184    1.5028    0.0103 C.3       1 <0>        -0.1086
      2 C2          0.0021   -0.0041    0.0020 C.2       1 <0>         0.1380
      3 C3         -0.0969   -0.6674   -1.1719 C.2       1 <0>        -0.1766
      4 C4         -0.0791   -2.0691   -1.1924 C.2       1 <0>        -0.0185
      5 C5          0.0386   -2.7572   -0.0221 C.2       1 <0>        -0.1474
      6 C6          0.1404   -2.0492    1.1894 C.2       1 <0>         0.4039
      7 N1          0.1256   -0.6822    1.1765 N.am      1 <0>        -0.4262
      8 C7          0.2285    0.0023    2.3358 C.2       1 <0>         0.5112
      9 O1          0.2111    1.2231    2.3386 O.2       1 <0>        -0.5148
     10 C8          0.3548   -0.7095    3.5343 C.2       1 <0>        -0.3148
     11 C9          0.3703   -2.0901    3.4929 C.2       1 <0>         0.2079
     12 N2          0.2555   -2.7199    2.3342 N.2       1 <0>        -0.5418
     13 C10         0.5057   -2.8800    4.7691 C.3       1 <0>        -0.5637
     14 S1         -1.1012   -3.5971    5.2098 S.o2      1 <0>         2.5026
     15 O2         -2.0127   -2.5693    5.5729 O.2       1 <0>        -0.9220
     16 O3         -1.4696   -4.5912    4.2636 O.2       1 <0>        -0.9084
     17 C11        -0.8066   -4.4849    6.7031 C.ar      1 <0>        -0.6626
     18 C12        -0.4222   -5.8119    6.6536 C.ar      1 <0>        -0.0080
     19 C13        -0.1910   -6.5088    7.8245 C.ar      1 <0>        -0.1306
     20 C14        -0.3443   -5.8781    9.0464 C.ar      1 <0>         0.0179
     21 C15        -0.7290   -4.5501    9.0953 C.ar      1 <0>        -0.1306
     22 C16        -0.9545   -3.8526    7.9235 C.ar      1 <0>        -0.0100
     23 Cl1        -0.0546   -6.7530   10.5175 Cl        1 <0>        -0.0502
     24 H1          0.9121    1.8764    0.4379 H         1 <0>         0.0952
     25 H2         -0.1225    1.8703   -1.0106 H         1 <0>         0.0803
     26 H3         -0.8594    1.8514    0.6096 H         1 <0>         0.0960
     27 H4         -0.1903   -0.1162   -2.0959 H         1 <0>         0.1619
     28 H5         -0.1585   -2.6000   -2.1296 H         1 <0>         0.1577
     29 H6          0.0532   -3.8371   -0.0245 H         1 <0>         0.1719
     30 H7          0.4392   -0.1878    4.4761 H         1 <0>         0.1654
     31 H8          1.2333   -3.6790    4.6263 H         1 <0>         0.1635
     32 H9          0.8418   -2.2216    5.5701 H         1 <0>         0.1576
     33 H10        -0.3029   -6.3042    5.6997 H         1 <0>         0.1551
     34 H11         0.1089   -7.5456    7.7857 H         1 <0>         0.1474
     35 H12        -0.8491   -4.0573   10.0487 H         1 <0>         0.1473
     36 H13        -1.2501   -2.8146    7.9614 H         1 <0>         0.1540
@<TRIPOS>BOND
     1    1    2 1
     2    1   24 1
     3    1   25 1
     4    1   26 1
     5    2    7 1
     6    2    3 2
     7    3    4 1
     8    3   27 1
     9    4    5 2
    10    4   28 1
    11    5    6 1
    12    5   29 1
    13    6   12 2
    14    6    7 1
    15    7    8 am
    16    8    9 2
    17    8   10 1
    18   10   11 2
    19   10   30 1
    20   11   12 1
    21   11   13 1
    22   13   14 1
    23   13   31 1
    24   13   32 1
    25   14   15 2
    26   14   16 2
    27   14   17 1
    28   17   22 ar
    29   17   18 ar
    30   18   19 ar
    31   18   33 1
    32   19   20 ar
    33   19   34 1
    34   20   21 ar
    35   20   23 1
    36   21   22 ar
    37   21   35 1
    38   22   36 1
@<TRIPOS>MOLECULE
ZINC60887718
   41    43     0     0     0
SMALL
USER_CHARGES

@<TRIPOS>ATOM
      1 C1         -0.0184    1.5028    0.0103 C.3       1 <0>        -0.1048
      2 C2          0.0021   -0.0041    0.0020 C.2       1 <0>        -0.0574
      3 C3          0.0058   -0.6760   -1.1586 C.2       1 <0>        -0.1669
      4 S1          0.0313   -2.3840   -0.6484 S.3       1 <0>         0.1413
      5 C4          0.0363   -2.1461    1.1101 C.2       1 <0>         0.1218
      6 C5          0.0240   -0.7455    1.2512 C.2       1 <0>        -0.2484
      7 C6          0.0297   -0.2553    2.5951 C.2       1 <0>         0.5613
      8 O1          0.0150    0.9437    2.8150 O.2       1 <0>        -0.5158
      9 N1          0.0509   -1.1348    3.6133 N.am      1 <0>        -0.5063
     10 C7          0.0671   -2.4805    3.3863 C.2       1 <0>         0.3622
     11 N2          0.0518   -2.9596    2.1589 N.2       1 <0>        -0.4691
     12 S2          0.0946   -3.5923    4.7530 S.3       1 <0>         0.0658
     13 C8          0.1098   -5.2345    3.9826 C.3       1 <0>        -0.1604
     14 C9          0.1096   -6.3431    5.0658 C.3       1 <0>        -0.1291
     15 C10         1.1407   -7.3355    4.4637 C.3       1 <0>         0.0803
     16 O2          2.0903   -6.4571    3.8235 O.3       1 <0>        -0.3334
     17 C11         1.4083   -5.4575    3.2310 C.2       1 <0>         0.4858
     18 O3          1.7718   -4.8394    2.2585 O.2       1 <0>        -0.4024
     19 C12         1.8158   -8.1524    5.5673 C.3       1 <0>        -0.1508
     20 C13         0.0573   -0.6383    4.9917 C.3       1 <0>         0.1140
     21 C14        -1.3612   -0.4870    5.4776 C.2       1 <0>        -0.1817
     22 C15        -1.7436   -1.0847    6.5788 C.2       1 <0>        -0.1527
     23 C16        -0.0087   -0.1201   -2.5593 C.3       1 <0>        -0.0667
     24 H1          1.0042    1.8801    0.0026 H         1 <0>         0.0717
     25 H2         -0.5455    1.8639   -0.8728 H         1 <0>         0.0674
     26 H3         -0.5286    1.8543    0.9071 H         1 <0>         0.0821
     27 H4         -0.7434   -5.3499    3.3142 H         1 <0>         0.1486
     28 H5          0.4507   -5.9555    6.0258 H         1 <0>         0.1031
     29 H6         -0.8738   -6.8043    5.1568 H         1 <0>         0.1156
     30 H7          0.6658   -7.9899    3.7326 H         1 <0>         0.1004
     31 H8          1.0612   -8.7179    6.1140 H         1 <0>         0.0860
     32 H9          2.5340   -8.8408    5.1220 H         1 <0>         0.0749
     33 H10         2.3330   -7.4803    6.2520 H         1 <0>         0.0726
     34 H11         0.5866   -1.3457    5.6301 H         1 <0>         0.1006
     35 H12         0.5587    0.3288    5.0272 H         1 <0>         0.1187
     36 H13        -2.0624    0.1143    4.9181 H         1 <0>         0.1180
     37 H14        -2.7601   -0.9762    6.9271 H         1 <0>         0.1094
     38 H15        -1.0423   -1.6859    7.1384 H         1 <0>         0.1035
     39 H16         1.0154    0.0282   -2.9020 H         1 <0>         0.0810
     40 H17        -0.5161   -0.8203   -3.2229 H         1 <0>         0.0755
     41 H18        -0.5358    0.8339   -2.5662 H         1 <0>         0.0845
@<TRIPOS>BOND
     1    1    2 1
     2    1   24 1
     3    1   25 1
     4    1   26 1
     5    2    6 1
     6    2    3 2
     7    3    4 1
     8    3   23 1
     9    4    5 1
    10    5   11 1
    11    5    6 2
    12    6    7 1
    13    7    8 2
    14    7    9 am
    15    9   10 1
    16    9   20 1
    17   10   11 2
    18   10   12 1
    19   12   13 1
    20   13   17 1
    21   13   14 1
    22   13   27 1
    23   14   15 1
    24   14   28 1
    25   14   29 1
    26   15   16 1
    27   15   19 1
    28   15   30 1
    29   16   17 1
    30   17   18 2
    31   19   31 1
    32   19   32 1
    33   19   33 1
    34   20   21 1
    35   20   34 1
    36   20   35 1
    37   21   22 2
    38   21   36 1
    39   22   37 1
    40   22   38 1
    41   23   39 1
    42   23   40 1
    43   23   41 1
@<TRIPOS>MOLECULE
ZINC15298822
   50    52     0     0     0
SMALL
USER_CHARGES

@<TRIPOS>ATOM
      1 C1         -0.0187    1.5258    0.0104 C.3       1 <0>        -0.1758
      2 C2          0.0021   -0.0041    0.0020 C.3       1 <0>         0.0997
      3 N1         -1.3723   -0.5112    0.0124 N.am      1 <0>        -0.6073
      4 C3         -2.0716   -0.7579   -1.2510 C.3       1 <0>         0.1545
      5 H1         -1.4095   -0.5196   -2.0835 H         1 <0>         0.1106
      6 C4         -2.4774   -2.2390   -1.3292 C.3       1 <0>        -0.1501
      7 C5         -3.4765   -2.4059   -2.5096 C.3       1 <0>        -0.5709
      8 S1         -4.5032   -0.8905   -2.2990 S.o2      1 <0>         2.3740
      9 O1         -5.6277   -1.2030   -1.4884 O.2       1 <0>        -0.9242
     10 O2         -4.7033   -0.2874   -3.5700 O.2       1 <0>        -0.9391
     11 C6         -3.3318    0.1377   -1.3242 C.3       1 <0>        -0.5978
     12 C7         -1.9934   -0.7507    1.1843 C.2       1 <0>         0.4861
     13 O3         -3.1312   -1.1705    1.1929 O.2       1 <0>        -0.5077
     14 C8         -1.2740   -0.4969    2.4840 C.3       1 <0>         0.1130
     15 N2         -2.1565   -0.8324    3.6042 N.pl3     1 <0>        -0.6138
     16 C9         -3.0486    0.1822    4.1817 C.3       1 <0>         0.1284
     17 C10        -2.9508    0.0774    5.7094 C.3       1 <0>        -0.1346
     18 C11        -3.4600   -1.2970    6.1434 C.3       1 <0>        -0.0730
     19 C12        -2.7762   -2.3847    5.3579 C.ar      1 <0>        -0.1408
     20 C13        -2.1678   -2.1258    4.1379 C.ar      1 <0>         0.2175
     21 C14        -1.5538   -3.1546    3.4324 C.ar      1 <0>        -0.1812
     22 C15        -1.5512   -4.4372    3.9434 C.ar      1 <0>        -0.0802
     23 C16        -2.1597   -4.6969    5.1575 C.ar      1 <0>        -0.1352
     24 C17        -2.7635   -3.6721    5.8674 C.ar      1 <0>        -0.0781
     25 C18        -2.1555   -6.0965    5.7162 C.3       1 <0>        -0.1074
     26 H2          1.0039    1.9031    0.0027 H         1 <0>         0.0729
     27 H3         -0.5459    1.8868   -0.8726 H         1 <0>         0.0622
     28 H4         -0.5289    1.8773    0.9072 H         1 <0>         0.0581
     29 H5          0.5123   -0.3556   -0.8948 H         1 <0>         0.0864
     30 H6          0.5293   -0.3651    0.8851 H         1 <0>         0.0843
     31 H7         -1.5945   -2.8538   -1.5044 H         1 <0>         0.0998
     32 H8         -2.9556   -2.5394   -0.3969 H         1 <0>         0.1098
     33 H9         -2.9581   -2.4008   -3.4684 H         1 <0>         0.1393
     34 H10        -4.0769   -3.3082   -2.3932 H         1 <0>         0.1436
     35 H11        -3.7260    0.3325   -0.3268 H         1 <0>         0.1503
     36 H12        -3.1133    1.0707   -1.8437 H         1 <0>         0.1410
     37 H13        -0.3776   -1.1152    2.5299 H         1 <0>         0.1044
     38 H14        -0.9936    0.5547    2.5447 H         1 <0>         0.1052
     39 H15        -2.7360    1.1753    3.8591 H         1 <0>         0.0755
     40 H16        -4.0744   -0.0041    3.8638 H         1 <0>         0.0649
     41 H17        -1.9122    0.1962    6.0179 H         1 <0>         0.0699
     42 H18        -3.5614    0.8548    6.1686 H         1 <0>         0.0791
     43 H19        -3.2572   -1.4375    7.2052 H         1 <0>         0.0750
     44 H20        -4.5355   -1.3525    5.9748 H         1 <0>         0.0727
     45 H21        -1.0791   -2.9504    2.4841 H         1 <0>         0.1119
     46 H22        -1.0742   -5.2365    3.3957 H         1 <0>         0.1185
     47 H23        -3.2377   -3.8796    6.8153 H         1 <0>         0.1203
     48 H24        -1.2701   -6.2376    6.3361 H         1 <0>         0.0643
     49 H25        -3.0499   -6.2494    6.3201 H         1 <0>         0.0620
     50 H26        -2.1433   -6.8149    4.8965 H         1 <0>         0.0617
@<TRIPOS>BOND
     1    1    2 1
     2    1   26 1
     3    1   27 1
     4    1   28 1
     5    2    3 1
     6    2   29 1
     7    2   30 1
     8    3    4 1
     9    3   12 am
    10    4    5 1
    11    4   11 1
    12    4    6 1
    13    6    7 1
    14    6   31 1
    15    6   32 1
    16    7    8 1
    17    7   33 1
    18    7   34 1
    19    8    9 2
    20    8   10 2
    21    8   11 1
    22   11   35 1
    23   11   36 1
    24   12   13 2
    25   12   14 1
    26   14   15 1
    27   14   37 1
    28   14   38 1
    29   15   20 1
    30   15   16 1
    31   16   17 1
    32   16   39 1
    33   16   40 1
    34   17   18 1
    35   17   41 1
    36   17   42 1
    37   18   19 1
    38   18   43 1
    39   18   44 1
    40   19   24 ar
    41   19   20 ar
    42   20   21 ar
    43   21   22 ar
    44   21   45 1
    45   22   23 ar
    46   22   46 1
    47   23   24 ar
    48   23   25 1
    49   24   47 1
    50   25   48 1
    51   25   49 1
    52   25   50 1
@<TRIPOS>MOLECULE
ZINC00940916
   30    31     0     0     0
SMALL
USER_CHARGES
2-bromo-N-[(4-iodophenyl)thiocarbamoyl]benzamide
@<TRIPOS>ATOM
      1 C1          4.7720    4.5049    0.4438 C.ar      1 <0>        -0.1105
      2 C2          5.9290    3.8516    0.8319 C.ar      1 <0>        -0.0816
      3 C3          5.8870    2.5214    1.2079 C.ar      1 <0>        -0.0957
      4 C4          4.6883    1.8356    1.1980 C.ar      1 <0>        -0.0406
      5 C5          3.5171    2.4893    0.8073 C.ar      1 <0>        -0.1161
      6 C6          3.5688    3.8313    0.4244 C.ar      1 <0>        -0.0845
      7 C7          2.2311    1.7627    0.7935 C.2       1 <0>         0.5205
      8 O1          2.1902    0.5935    1.1224 O.2       1 <0>        -0.3670
      9 N1          1.1031    2.3964    0.4160 N.am      1 <0>        -0.6374
     10 C8         -0.0703    1.7335    0.4034 C.2       1 <0>         0.5090
     11 S1         -0.1279    0.0864    0.8668 S.2       1 <0>        -0.4711
     12 N2         -1.1974    2.3657    0.0206 N.pl3     1 <0>        -0.6238
     13 C9         -2.3975    1.6544   -0.0832 C.ar      1 <0>         0.1337
     14 C10        -3.2163    1.8292   -1.1913 C.ar      1 <0>        -0.1138
     15 C11        -4.3982    1.1220   -1.2932 C.ar      1 <0>        -0.0824
     16 C12        -4.7719    0.2482   -0.2880 C.ar      1 <0>        -0.0903
     17 C13        -3.9610    0.0760    0.8194 C.ar      1 <0>        -0.0790
     18 C14        -2.7754    0.7764    0.9244 C.ar      1 <0>        -0.0642
     19 I1         -6.5693   -0.8169   -0.4434 I         1 <0>        -0.0382
     20 Br1         4.6326    0.0164    1.7112 Br        1 <0>         0.0024
     21 H1          4.8123    5.5438    0.1514 H         1 <0>         0.1392
     22 H2          6.8691    4.3831    0.8408 H         1 <0>         0.1410
     23 H3          6.7935    2.0179    1.5096 H         1 <0>         0.1443
     24 H4          2.6679    4.3415    0.1170 H         1 <0>         0.1299
     25 H5          1.1358    3.3296    0.1534 H         1 <0>         0.4078
     26 H6         -1.1764    3.3139   -0.1829 H         1 <0>         0.4089
     27 H7         -2.9271    2.5143   -1.9745 H         1 <0>         0.1334
     28 H8         -5.0334    1.2545   -2.1566 H         1 <0>         0.1354
     29 H9         -4.2551   -0.6071    1.6025 H         1 <0>         0.1364
     30 H10        -2.1425    0.6413    1.7891 H         1 <0>         0.1540
@<TRIPOS>BOND
     1    1    6 ar
     2    1    2 ar
     3    1   21 1
     4    2    3 ar
     5    2   22 1
     6    3    4 ar
     7    3   23 1
     8    4    5 ar
     9    4   20 1
    10    5    6 ar
    11    5    7 1
    12    6   24 1
    13    7    8 2
    14    7    9 am
    15    9   10 1
    16    9   25 1
    17   10   11 2
    18   10   12 1
    19   12   13 1
    20   12   26 1
    21   13   18 ar
    22   13   14 ar
    23   14   15 ar
    24   14   27 1
    25   15   16 ar
    26   15   28 1
    27   16   17 ar
    28   16   19 1
    29   17   18 ar
    30   17   29 1
    31   18   30 1
@<TRIPOS>MOLECULE
ZINC13642701
   63    68     0     0     0
SMALL
USER_CHARGES
(3aS,4S,9bS)-N-allyl-4-(9-ethylcarbazol-3-yl)-3a,4,5,9b-tetrahydro-3H-cyclopenta[c]quinoline-6-carboxamide
@<TRIPOS>ATOM
      1 C1         -3.1593    5.4741   -1.3837 C.3       1 <0>        -0.1726
      2 C2         -2.9949    4.9802    0.0550 C.3       1 <0>         0.1103
      3 N1         -2.5620    3.5807    0.0444 N.pl3     1 <0>        -0.5053
      4 C3         -3.4127    2.4897    0.0469 C.ar      1 <0>         0.1431
      5 C4         -4.8004    2.3845    0.0598 C.ar      1 <0>        -0.1438
      6 C5         -5.3981    1.1428    0.0588 C.ar      1 <0>        -0.0845
      7 C6         -4.6281   -0.0103    0.0458 C.ar      1 <0>        -0.1525
      8 C7         -3.2526    0.0736    0.0333 C.ar      1 <0>        -0.0617
      9 C8         -2.6353    1.3223    0.0338 C.ar      1 <0>        -0.1032
     10 C9         -1.2267    1.7578    0.0174 C.ar      1 <0>        -0.1063
     11 C10        -1.2439    3.1607    0.0299 C.ar      1 <0>         0.1490
     12 C11        -0.0394    3.8571    0.0222 C.ar      1 <0>        -0.1466
     13 C12         1.1552    3.1694    0.0076 C.ar      1 <0>        -0.0443
     14 C13         1.1705    1.7834    0.0005 C.ar      1 <0>        -0.1123
     15 C14        -0.0126    1.0758    0.0080 C.ar      1 <0>        -0.0499
     16 C15         2.4853    1.0473   -0.0150 C.3       1 <0>         0.1527
     17 H1          2.3357    0.0272   -0.3690 H         1 <0>         0.0664
     18 C16         3.0828    1.0284    1.3764 C.3       1 <0>        -0.0885
     19 H2          3.3851    2.0266    1.6933 H         1 <0>         0.0975
     20 C17         2.3276    0.2731    2.4756 C.3       1 <0>        -0.0850
     21 C18         3.4765   -0.1646    3.3879 C.2       1 <0>        -0.1612
     22 C19         4.6001   -0.2626    2.6855 C.2       1 <0>        -0.1516
     23 C20         4.2997    0.0569    1.2685 C.3       1 <0>        -0.0368
     24 H3          3.9530   -0.8593    0.7905 H         1 <0>         0.0836
     25 C21         5.2808    0.7058    0.3710 C.ar      1 <0>        -0.1333
     26 C22         6.6383    0.5444    0.5440 C.ar      1 <0>        -0.0508
     27 C23         7.5407    1.1502   -0.3143 C.ar      1 <0>        -0.1654
     28 C24         7.0812    1.9223   -1.3589 C.ar      1 <0>        -0.0554
     29 C25         5.7122    2.0994   -1.5471 C.ar      1 <0>        -0.1932
     30 C26         4.7864    1.4964   -0.6702 C.ar      1 <0>         0.2125
     31 N2          3.4413    1.7462   -0.8887 N.pl3     1 <0>        -0.6184
     32 C27         5.2279    2.9223   -2.6705 C.2       1 <0>         0.5625
     33 O1          4.0338    3.0793   -2.8386 O.2       1 <0>        -0.5294
     34 N3          6.1086    3.5006   -3.5110 N.am      1 <0>        -0.7274
     35 C28         5.6273    4.3183   -4.6272 C.3       1 <0>         0.1487
     36 C29         6.8038    4.8447   -5.4081 C.2       1 <0>        -0.1812
     37 C30         6.8861    4.6242   -6.6968 C.2       1 <0>        -0.1620
     38 H4         -3.4814    6.5154   -1.3758 H         1 <0>         0.0741
     39 H5         -2.2066    5.3925   -1.9070 H         1 <0>         0.0626
     40 H6         -3.9070    4.8664   -1.8933 H         1 <0>         0.0615
     41 H7         -3.9476    5.0618    0.5783 H         1 <0>         0.0865
     42 H8         -2.2472    5.5879    0.5646 H         1 <0>         0.0870
     43 H9         -5.4092    3.2764    0.0703 H         1 <0>         0.1208
     44 H10        -6.4754    1.0671    0.0685 H         1 <0>         0.1276
     45 H11        -5.1081   -0.9777    0.0450 H         1 <0>         0.1257
     46 H12        -2.6552   -0.8261    0.0228 H         1 <0>         0.1236
     47 H13        -0.0404    4.9371    0.0280 H         1 <0>         0.1206
     48 H14         2.0871    3.7152    0.0020 H         1 <0>         0.1339
     49 H15         0.0021   -0.0041    0.0020 H         1 <0>         0.1220
     50 H16         1.6397    0.9342    3.0027 H         1 <0>         0.0754
     51 H17         1.8021   -0.5900    2.0669 H         1 <0>         0.0810
     52 H18         3.3869   -0.3642    4.4455 H         1 <0>         0.1302
     53 H19         5.5693   -0.5298    3.0801 H         1 <0>         0.1306
     54 H20         7.0032   -0.0622    1.3595 H         1 <0>         0.1255
     55 H21         8.6021    1.0172   -0.1655 H         1 <0>         0.1276
     56 H22         7.7833    2.3910   -2.0326 H         1 <0>         0.1229
     57 H23         3.2017    1.6202   -1.8607 H         1 <0>         0.3878
     58 H24         7.0611    3.3754   -3.3768 H         1 <0>         0.4000
     59 H25         5.0011    3.7099   -5.2797 H         1 <0>         0.0720
     60 H26         5.0446    5.1543   -4.2405 H         1 <0>         0.0768
     61 H27         7.5791    5.4037   -4.9053 H         1 <0>         0.1157
     62 H28         6.1108    4.0652   -7.1996 H         1 <0>         0.1007
     63 H29         7.7293    5.0015   -7.2564 H         1 <0>         0.1045
@<TRIPOS>BOND
     1    1    2 1
     2    1   38 1
     3    1   39 1
     4    1   40 1
     5    2    3 1
     6    2   41 1
     7    2   42 1
     8    3   11 1
     9    3    4 1
    10    4    9 ar
    11    4    5 ar
    12    5    6 ar
    13    5   43 1
    14    6    7 ar
    15    6   44 1
    16    7    8 ar
    17    7   45 1
    18    8    9 ar
    19    8   46 1
    20    9   10 1
    21   10   15 ar
    22   10   11 ar
    23   11   12 ar
    24   12   13 ar
    25   12   47 1
    26   13   14 ar
    27   13   48 1
    28   14   15 ar
    29   14   16 1
    30   15   49 1
    31   16   17 1
    32   16   31 1
    33   16   18 1
    34   18   19 1
    35   18   23 1
    36   18   20 1
    37   20   21 1
    38   20   50 1
    39   20   51 1
    40   21   22 2
    41   21   52 1
    42   22   23 1
    43   22   53 1
    44   23   24 1
    45   23   25 1
    46   25   30 ar
    47   25   26 ar
    48   26   27 ar
    49   26   54 1
    50   27   28 ar
    51   27   55 1
    52   28   29 ar
    53   28   56 1
    54   29   30 ar
    55   29   32 1
    56   30   31 1
    57   31   57 1
    58   32   33 2
    59   32   34 am
    60   34   35 1
    61   34   58 1
    62   35   36 1
    63   35   59 1
    64   35   60 1
    65   36   37 2
    66   36   61 1
    67   37   62 1
    68   37   63 1
@<TRIPOS>MOLECULE
ZINC20680786
   48    51     0     0     0
SMALL
USER_CHARGES
(3aR,4S,9bR)-N-allyl-4-(4-bromophenyl)-3a,4,5,9b-tetrahydro-3H-cyclopenta[c]quinoline-8-sulfonamide
@<TRIPOS>ATOM
      1 C1         -0.2225   -4.2854   -4.0557 C.2       1 <0>        -0.1747
      2 C2         -0.5406   -4.5756   -2.8185 C.2       1 <0>        -0.1678
      3 C3          0.1495   -3.8723   -1.6783 C.3       1 <0>         0.1448
      4 N1         -0.8533   -3.2555   -0.8064 N.pl3     1 <0>        -1.1216
      5 S1         -0.4281   -2.7385    0.7083 S.o2      1 <0>         2.6959
      6 O1          0.2811   -3.8082    1.3183 O.2       1 <0>        -0.9610
      7 O2         -1.5955   -2.1709    1.2863 O.2       1 <0>        -0.9635
      8 C4          0.7245   -1.4214    0.5047 C.ar      1 <0>        -0.7334
      9 C5          0.2747   -0.1168    0.4094 C.ar      1 <0>         0.0252
     10 C6          1.1748    0.9171    0.2541 C.ar      1 <0>        -0.2148
     11 C7          2.5387    0.6571    0.1929 C.ar      1 <0>         0.2720
     12 C8          2.9855   -0.6659    0.2803 C.ar      1 <0>        -0.1680
     13 C9          2.0789   -1.6914    0.4397 C.ar      1 <0>         0.0239
     14 C10         4.4419   -0.9036    0.1753 C.3       1 <0>        -0.0185
     15 H1          4.5053   -1.0971   -0.9057 H         1 <0>         0.1041
     16 C11         5.0883   -2.0882    0.7977 C.2       1 <0>        -0.1696
     17 C12         6.3227   -1.7577    1.1577 C.2       1 <0>        -0.1758
     18 C13         6.5881   -0.2880    0.8276 C.3       1 <0>        -0.0892
     19 C14         5.1693    0.2952    0.8554 C.3       1 <0>        -0.0788
     20 H2          4.9086    0.6617    1.8592 H         1 <0>         0.1078
     21 C15         4.8925    1.4944   -0.0329 C.3       1 <0>         0.1934
     22 H3          5.4472    2.3907    0.2817 H         1 <0>         0.1078
     23 N2          3.4336    1.7250    0.0548 N.pl3     1 <0>        -0.7435
     24 C16         5.2874    1.1911   -1.4553 C.ar      1 <0>        -0.0869
     25 C17         6.5703    1.4673   -1.8902 C.ar      1 <0>        -0.1054
     26 C18         6.9343    1.1849   -3.1933 C.ar      1 <0>        -0.0883
     27 C19         6.0116    0.6356   -4.0653 C.ar      1 <0>        -0.0883
     28 C20         4.7266    0.3643   -3.6312 C.ar      1 <0>        -0.0908
     29 C21         4.3650    0.6422   -2.3265 C.ar      1 <0>        -0.0998
     30 Br1         6.5067    0.2563   -5.8505 Br        1 <0>        -0.0480
     31 H4         -0.7262   -4.7988   -4.8880 H         1 <0>         0.1059
     32 H5          0.5483   -3.5284   -4.2623 H         1 <0>         0.1006
     33 H6         -1.3114   -5.3326   -2.6119 H         1 <0>         0.1206
     34 H7          0.7390   -4.6002   -1.1015 H         1 <0>         0.0902
     35 H8          0.8167   -3.0942   -2.0775 H         1 <0>         0.0630
     36 H9         -1.8407   -2.9853   -1.2090 H         1 <0>         0.4418
     37 H10        -0.7839    0.0925    0.4522 H         1 <0>         0.1373
     38 H11         0.8177    1.9337    0.1797 H         1 <0>         0.1298
     39 H12         2.4280   -2.7106    0.5146 H         1 <0>         0.1351
     40 H13         4.7155   -3.1065    0.9825 H         1 <0>         0.1349
     41 H14         6.9806   -2.5086    1.6196 H         1 <0>         0.1322
     42 H15         7.2509    0.1454    1.5911 H         1 <0>         0.0757
     43 H16         7.0685   -0.2148   -0.1592 H         1 <0>         0.0858
     44 H17         3.0351    2.7494    0.0117 H         1 <0>         0.4285
     45 H18         7.2894    1.8999   -1.2104 H         1 <0>         0.1339
     46 H19         7.9376    1.3971   -3.5319 H         1 <0>         0.1347
     47 H20         4.0060   -0.0648   -4.3117 H         1 <0>         0.1315
     48 H21         3.3616    0.4308   -1.9875 H         1 <0>         0.1312
@<TRIPOS>BOND
     1    1    2 2
     2    1   31 1
     3    1   32 1
     4    2    3 1
     5    2   33 1
     6    3    4 1
     7    3   34 1
     8    3   35 1
     9    4    5 1
    10    4   36 1
    11    5    6 2
    12    5    7 2
    13    5    8 1
    14    8   13 ar
    15    8    9 ar
    16    9   10 ar
    17    9   37 1
    18   10   11 ar
    19   10   38 1
    20   11   23 1
    21   11   12 ar
    22   12   13 ar
    23   12   14 1
    24   13   39 1
    25   14   15 1
    26   14   19 1
    27   14   16 1
    28   16   17 2
    29   16   40 1
    30   17   18 1
    31   17   41 1
    32   18   19 1
    33   18   42 1
    34   18   43 1
    35   19   20 1
    36   19   21 1
    37   21   22 1
    38   21   23 1
    39   21   24 1
    40   23   44 1
    41   24   29 ar
    42   24   25 ar
    43   25   26 ar
    44   25   45 1
    45   26   27 ar
    46   26   46 1
    47   27   28 ar
    48   27   30 1
    49   28   29 ar
    50   28   47 1
    51   29   48 1
@<TRIPOS>MOLECULE
ZINC48333984
   43    45     0     0     0
SMALL
USER_CHARGES

@<TRIPOS>ATOM
      1 C1         -0.6486    1.6946   -0.3652 C.ar      1 <0>        -0.0524
      2 C2          0.4838    2.4815   -0.3784 C.ar      1 <0>        -0.0965
      3 C3          1.7375    1.8967   -0.3166 C.ar      1 <0>        -0.0679
      4 C4          1.8625    0.5196   -0.2413 C.ar      1 <0>        -0.0979
      5 C5          0.7376   -0.2780   -0.2278 C.ar      1 <0>        -0.0815
      6 C6         -0.5292    0.3057   -0.2894 C.ar      1 <0>        -0.1209
      7 C7         -1.7389   -0.5434   -0.2744 C.2       1 <0>         0.5586
      8 O1         -2.8406   -0.0326   -0.3281 O.2       1 <0>        -0.5232
      9 N1         -1.6204   -1.8839   -0.2011 N.am      1 <0>        -0.7283
     10 C8         -2.8194   -2.7255   -0.1862 C.3       1 <0>         0.1341
     11 C9         -2.4088   -4.1968   -0.0989 C.3       1 <0>        -0.1550
     12 C10        -3.6422   -5.0625   -0.0836 C.2       1 <0>         0.5192
     13 O2         -4.7415   -4.5529   -0.1373 O.2       1 <0>        -0.5137
     14 N2         -3.5238   -6.4031   -0.0104 N.am      1 <0>        -0.7014
     15 C11        -4.7204   -7.2381    0.1207 C.3       1 <0>         0.1270
     16 C12        -4.8507   -8.4382   -0.8193 C.3       1 <0>        -0.1610
     17 C13        -5.7335   -7.2056   -1.0254 C.3       1 <0>        -0.1455
     18 C14        -5.2579   -7.3885    1.5205 C.ar      1 <0>        -0.0320
     19 C15        -6.4239   -8.0977    1.7405 C.ar      1 <0>        -0.1105
     20 C16        -6.9171   -8.2363    3.0242 C.ar      1 <0>        -0.0833
     21 C17        -6.2436   -7.6652    4.0890 C.ar      1 <0>        -0.0934
     22 C18        -5.0769   -6.9556    3.8684 C.ar      1 <0>        -0.0853
     23 C19        -4.5817   -6.8220    2.5849 C.ar      1 <0>        -0.1018
     24 Br1        -6.9181   -7.8539    5.8455 Br        1 <0>        -0.0481
     25 Br2         3.2852    2.9830   -0.3358 Br        1 <0>        -0.0383
     26 H1         -1.6260    2.1520   -0.4090 H         1 <0>         0.1476
     27 H2          0.3927    3.5560   -0.4374 H         1 <0>         0.1426
     28 H3          2.8430    0.0693   -0.1933 H         1 <0>         0.1411
     29 H4          0.8363   -1.3518   -0.1693 H         1 <0>         0.1350
     30 H5         -0.7412   -2.2915   -0.1582 H         1 <0>         0.3997
     31 H6         -3.4335   -2.4679    0.6767 H         1 <0>         0.0810
     32 H7         -3.3901   -2.5612   -1.1003 H         1 <0>         0.0810
     33 H8         -1.7948   -4.4544   -0.9619 H         1 <0>         0.1035
     34 H9         -1.8382   -4.3611    0.8151 H         1 <0>         0.1036
     35 H10        -2.6462   -6.8150   -0.0444 H         1 <0>         0.4060
     36 H11        -4.0462   -8.6064   -1.5353 H         1 <0>         0.1065
     37 H12        -5.3253   -9.3369   -0.4253 H         1 <0>         0.1100
     38 H13        -6.7887   -7.2934   -0.7669 H         1 <0>         0.1071
     39 H14        -5.5097   -6.5630   -1.8769 H         1 <0>         0.1048
     40 H15        -6.9498   -8.5433    0.9090 H         1 <0>         0.1338
     41 H16        -7.8282   -8.7901    3.1959 H         1 <0>         0.1360
     42 H17        -4.5508   -6.5096    4.6995 H         1 <0>         0.1336
     43 H18        -3.6686   -6.2715    2.4131 H         1 <0>         0.1259
@<TRIPOS>BOND
     1    1    6 ar
     2    1    2 ar
     3    1   26 1
     4    2    3 ar
     5    2   27 1
     6    3    4 ar
     7    3   25 1
     8    4    5 ar
     9    4   28 1
    10    5    6 ar
    11    5   29 1
    12    6    7 1
    13    7    8 2
    14    7    9 am
    15    9   10 1
    16    9   30 1
    17   10   11 1
    18   10   31 1
    19   10   32 1
    20   11   12 1
    21   11   33 1
    22   11   34 1
    23   12   13 2
    24   12   14 am
    25   14   15 1
    26   14   35 1
    27   15   17 1
    28   15   16 1
    29   15   18 1
    30   16   17 1
    31   16   36 1
    32   16   37 1
    33   17   38 1
    34   17   39 1
    35   18   23 ar
    36   18   19 ar
    37   19   20 ar
    38   19   40 1
    39   20   21 ar
    40   20   41 1
    41   21   22 ar
    42   21   24 1
    43   22   23 ar
    44   22   42 1
    45   23   43 1
@<TRIPOS>MOLECULE
ZINC59352502
   43    44     0     0     0
SMALL
USER_CHARGES

@<TRIPOS>ATOM
      1 C1         -0.0588    1.5027    0.0101 C.3       1 <0>        -0.1274
      2 C2         -0.0284   -0.0039    0.0020 C.ar      1 <0>        -0.0407
      3 C3         -0.0164   -0.6871   -1.1982 C.ar      1 <0>        -0.1298
      4 C4          0.0121   -2.0762   -1.2049 C.ar      1 <0>        -0.0884
      5 C5          0.0283   -2.7738   -0.0029 C.ar      1 <0>        -0.0632
      6 C6          0.0162   -2.0850    1.1936 C.ar      1 <0>        -0.0677
      7 C7         -0.0069   -0.7012    1.1968 C.ar      1 <0>        -0.0957
      8 Br1        -0.0162    0.2385    2.8378 Br        1 <0>        -0.0427
      9 C8          0.0587   -4.2805   -0.0055 C.3       1 <0>        -0.1194
     10 S1          0.0270   -2.9517   -2.7339 S.3       1 <0>        -0.0055
     11 C9         -0.0024   -1.6426   -3.9894 C.3       1 <0>        -0.1646
     12 C10         0.0076   -2.2632   -5.3626 C.2       1 <0>         0.5368
     13 O1          0.0321   -3.4699   -5.4826 O.2       1 <0>        -0.4931
     14 N1         -0.0107   -1.4774   -6.4574 N.am      1 <0>        -0.6679
     15 C11         0.0963   -2.0488   -7.7311 C.ar      1 <0>         0.1396
     16 C12        -0.4854   -3.2848   -7.9890 C.ar      1 <0>        -0.0805
     17 C13        -0.3832   -3.8537   -9.2439 C.ar      1 <0>        -0.0985
     18 C14         0.2985   -3.1979  -10.2512 C.ar      1 <0>         0.0036
     19 C15         0.8863   -1.9555  -10.0015 C.ar      1 <0>        -0.1123
     20 C16         0.7769   -1.3795   -8.7352 C.ar      1 <0>        -0.0994
     21 C17         1.6162   -1.2509  -11.0761 C.2       1 <0>         0.5525
     22 O2          1.7060   -1.7524  -12.1798 O.2       1 <0>        -0.5061
     23 N2          2.1824   -0.0524  -10.8325 N.am      1 <0>        -0.7318
     24 C18         2.9060    0.6461  -11.8978 C.3       1 <0>         0.0878
     25 Cl1         0.4249   -3.9178  -11.8258 Cl        1 <0>        -0.0248
     26 H1          0.9613    1.8867    0.0057 H         1 <0>         0.0803
     27 H2         -0.5855    1.8603   -0.8746 H         1 <0>         0.0719
     28 H3         -0.5742    1.8509    0.9053 H         1 <0>         0.0801
     29 H4         -0.0294   -0.1422   -2.1306 H         1 <0>         0.1292
     30 H5          0.0284   -2.6265    2.1279 H         1 <0>         0.1395
     31 H6          1.0935   -4.6231   -0.0080 H         1 <0>         0.0806
     32 H7         -0.4460   -4.6556    0.8848 H         1 <0>         0.0761
     33 H8         -0.4493   -4.6526   -0.8952 H         1 <0>         0.0756
     34 H9         -0.9046   -1.0431   -3.8681 H         1 <0>         0.1236
     35 H10         0.8750   -1.0066   -3.8717 H         1 <0>         0.1238
     36 H11        -0.0980   -0.5160   -6.3629 H         1 <0>         0.4161
     37 H12        -1.0188   -3.8024   -7.2055 H         1 <0>         0.1544
     38 H13        -0.8373   -4.8142   -9.4381 H         1 <0>         0.1475
     39 H14         1.2254   -0.4172   -8.5371 H         1 <0>         0.1381
     40 H15         2.1108    0.3478   -9.9518 H         1 <0>         0.3988
     41 H16         3.7358    0.0274  -12.2394 H         1 <0>         0.0631
     42 H17         2.2296    0.8387  -12.7305 H         1 <0>         0.0632
     43 H18         3.2909    1.5917  -11.5160 H         1 <0>         0.0774
@<TRIPOS>BOND
     1    1    2 1
     2    1   26 1
     3    1   27 1
     4    1   28 1
     5    2    7 ar
     6    2    3 ar
     7    3    4 ar
     8    3   29 1
     9    4    5 ar
    10    4   10 1
    11    5    6 ar
    12    5    9 1
    13    6    7 ar
    14    6   30 1
    15    7    8 1
    16    9   31 1
    17    9   32 1
    18    9   33 1
    19   10   11 1
    20   11   12 1
    21   11   34 1
    22   11   35 1
    23   12   13 2
    24   12   14 am
    25   14   15 1
    26   14   36 1
    27   15   20 ar
    28   15   16 ar
    29   16   17 ar
    30   16   37 1
    31   17   18 ar
    32   17   38 1
    33   18   19 ar
    34   18   25 1
    35   19   20 ar
    36   19   21 1
    37   20   39 1
    38   21   22 2
    39   21   23 am
    40   23   24 1
    41   23   40 1
    42   24   41 1
    43   24   42 1
    44   24   43 1
@<TRIPOS>MOLECULE
ZINC06871661
   49    51     0     0     0
SMALL
USER_CHARGES
3-[5-[3-(4-dimethylaminophenyl)prop-2-enylidene]-3-methyl-4-oxo-thiazolidin-2-ylidene]aminobenzoic acid
@<TRIPOS>ATOM
      1 C1         -2.4250    1.1643    0.0195 C.3       1 <0>         0.0721
      2 N1         -1.1515    1.8884    0.0176 N.am      1 <0>        -0.5439
      3 C2         -0.0144    1.2136    0.0087 C.2       1 <0>         0.5567
      4 O1          0.0021   -0.0041    0.0020 O.2       1 <0>        -0.5015
      5 C3          1.2303    1.9989    0.0010 C.2       1 <0>        -0.2224
      6 C4          2.5261    1.5684   -0.0132 C.2       1 <0>         0.0495
      7 C5          3.5782    2.5033   -0.0183 C.2       1 <0>        -0.1767
      8 C6          4.8646    2.0760   -0.0325 C.2       1 <0>        -0.0229
      9 C7          5.9621    3.0512   -0.0378 C.ar      1 <0>        -0.1419
     10 C8          5.6823    4.4238   -0.0342 C.ar      1 <0>        -0.0438
     11 C9          6.7143    5.3340   -0.0339 C.ar      1 <0>        -0.2009
     12 C10         8.0346    4.8927   -0.0484 C.ar      1 <0>         0.2289
     13 C11         8.3175    3.5297   -0.0579 C.ar      1 <0>        -0.2056
     14 C12         7.2922    2.6120   -0.0525 C.ar      1 <0>        -0.0436
     15 N2          9.0756    5.8178   -0.0530 N.pl3     1 <0>        -0.6332
     16 C13        10.4658    5.3559   -0.0679 C.3       1 <0>         0.0900
     17 C14         8.7805    7.2527   -0.0431 C.3       1 <0>         0.0881
     18 S1          0.5900    3.6672    0.0154 S.3       1 <0>        -0.0385
     19 C15        -1.1497    3.2660    0.0296 C.2       1 <0>         0.3820
     20 N3         -2.1778    4.0851    0.0433 N.2       1 <0>        -0.4346
     21 C16        -1.9745    5.4383    0.0487 C.ar      1 <0>         0.0610
     22 C17        -1.0209    6.0003    0.9026 C.ar      1 <0>        -0.1422
     23 C18        -0.8114    7.3646    0.9056 C.ar      1 <0>        -0.1220
     24 C19        -1.5482    8.1850    0.0742 C.ar      1 <0>        -0.0701
     25 C20        -2.5083    7.6381   -0.7806 C.ar      1 <0>        -0.1028
     26 C21        -2.7220    6.2608   -0.7932 C.ar      1 <0>        -0.0534
     27 C22        -3.2959    8.5177   -1.6689 C.2       1 <0>         0.4906
     28 O2         -4.1307    8.0408   -2.4113 O.co2     1 <0>        -0.6270
     29 H1         -2.2330    0.0914    0.0132 H         1 <0>         0.0955
     30 H2         -2.9909    1.4269    0.9133 H         1 <0>         0.0783
     31 H3         -2.9987    1.4359   -0.8666 H         1 <0>         0.0802
     32 H4          2.7437    0.5106   -0.0206 H         1 <0>         0.1460
     33 H5          3.3607    3.5611   -0.0110 H         1 <0>         0.1256
     34 H6          5.0821    1.0181   -0.0399 H         1 <0>         0.1269
     35 H7          4.6584    4.7670   -0.0273 H         1 <0>         0.1293
     36 H8          6.4996    6.3924   -0.0269 H         1 <0>         0.1273
     37 H9          9.3432    3.1920   -0.0692 H         1 <0>         0.1247
     38 H10         7.5126    1.5547   -0.0591 H         1 <0>         0.1260
     39 H11        10.8014    5.2466   -1.0991 H         1 <0>         0.0504
     40 H12        11.0958    6.0833    0.4441 H         1 <0>         0.0677
     41 H13        10.5346    4.3942    0.4405 H         1 <0>         0.0703
     42 H14         8.7165    7.6033    0.9870 H         1 <0>         0.0516
     43 H15         9.5744    7.7905   -0.5613 H         1 <0>         0.0682
     44 H16         7.8310    7.4319   -0.5475 H         1 <0>         0.0729
     45 H17        -0.4442    5.3651    1.5586 H         1 <0>         0.1228
     46 H18        -0.0705    7.7930    1.5643 H         1 <0>         0.1234
     47 H19        -1.3821    9.2521    0.0852 H         1 <0>         0.1358
     48 H20        -3.4627    5.8326   -1.4523 H         1 <0>         0.1355
     49 O3         -3.0882    9.8486   -1.6554 O.co2     1 <0>        -0.7506
@<TRIPOS>BOND
     1    1    2 1
     2    1   29 1
     3    1   30 1
     4    1   31 1
     5    2   19 1
     6    2    3 am
     7    3    4 2
     8    3    5 1
     9    5    6 2
    10    5   18 1
    11    6    7 1
    12    6   32 1
    13    7    8 2
    14    7   33 1
    15    8    9 1
    16    8   34 1
    17    9   14 ar
    18    9   10 ar
    19   10   11 ar
    20   10   35 1
    21   11   12 ar
    22   11   36 1
    23   12   13 ar
    24   12   15 1
    25   13   14 ar
    26   13   37 1
    27   14   38 1
    28   15   16 1
    29   15   17 1
    30   16   39 1
    31   16   40 1
    32   16   41 1
    33   17   42 1
    34   17   43 1
    35   17   44 1
    36   18   19 1
    37   19   20 2
    38   20   21 1
    39   21   26 ar
    40   21   22 ar
    41   22   23 ar
    42   22   45 1
    43   23   24 ar
    44   23   46 1
    45   24   25 ar
    46   24   47 1
    47   25   26 ar
    48   25   27 1
    49   26   48 1
    50   27   28 2
    51   27   49 1
@<TRIPOS>MOLECULE
ZINC22528279
   52    54     0     0     0
SMALL
USER_CHARGES
N-[3-(4-tert-butylbenzoyl)phenyl]-4-nitro-benzenesulfonamide
@<TRIPOS>ATOM
      1 C1         -1.2544   -1.8005   -1.9935 C.3       1 <0>        -0.1404
      2 C2          0.0945   -1.6671   -1.2838 C.3       1 <0>        -0.0321
      3 C3          1.2177   -2.0614   -2.2450 C.3       1 <0>        -0.1470
      4 C4          0.1215   -2.5884   -0.0625 C.3       1 <0>        -0.1404
      5 C5          0.2902   -0.2400   -0.8409 C.ar      1 <0>        -0.0486
      6 C6         -0.6102    0.3383    0.0366 C.ar      1 <0>        -0.1296
      7 C7         -0.4373    1.6440    0.4461 C.ar      1 <0>        -0.0651
      8 C8          0.6495    2.3828   -0.0274 C.ar      1 <0>        -0.1541
      9 C9          1.5540    1.7928   -0.9133 C.ar      1 <0>        -0.0721
     10 C10         1.3691    0.4861   -1.3140 C.ar      1 <0>        -0.1352
     11 C11         0.8410    3.7821    0.4063 C.2       1 <0>         0.4388
     12 O1         -0.1121    4.4397    0.7759 O.2       1 <0>        -0.4570
     13 C12         2.1912    4.3821    0.3909 C.ar      1 <0>        -0.1497
     14 C13         3.3226    3.5623    0.3720 C.ar      1 <0>        -0.1464
     15 C14         4.5818    4.1252    0.3527 C.ar      1 <0>        -0.1073
     16 C15         4.7302    5.5000    0.3622 C.ar      1 <0>        -0.1852
     17 C16         3.6115    6.3247    0.3863 C.ar      1 <0>         0.2091
     18 C17         2.3411    5.7696    0.4010 C.ar      1 <0>        -0.0923
     19 N1          3.7672    7.7131    0.3963 N.2       1 <0>        -1.0507
     20 S1          4.8766    8.4146    1.4059 S.o2      1 <0>         2.5743
     21 O2          6.1034    7.7272    1.2016 O.2       1 <0>        -1.0283
     22 O3          4.7525    9.8195    1.2323 O.2       1 <0>        -0.9852
     23 C18         4.3724    8.0648    3.0576 C.ar      1 <0>        -0.6065
     24 C19         3.4388    8.8716    3.6808 C.ar      1 <0>        -0.0259
     25 C20         3.0399    8.5946    4.9750 C.ar      1 <0>        -0.0794
     26 C21         3.5817    7.5164    5.6494 C.ar      1 <0>        -0.0194
     27 C22         4.5188    6.7124    5.0279 C.ar      1 <0>        -0.0788
     28 C23         4.9145    6.9869    3.7321 C.ar      1 <0>        -0.0315
     29 N2          3.1581    7.2225    7.0369 N.pl3     1 <0>         0.0291
     30 O4          3.6351    6.2723    7.6310 O.2       1 <0>        -0.1628
     31 O5          2.3324    7.9310    7.5846 O.3       1 <0>        -0.1627
     32 H1         -2.0619   -1.5170   -1.3024 H         1 <0>         0.0579
     33 H2         -1.3972   -2.8422   -2.3167 H         1 <0>         0.0585
     34 H3         -1.2738   -1.1382   -2.8715 H         1 <0>         0.0578
     35 H4          2.1875   -1.9655   -1.7348 H         1 <0>         0.0610
     36 H5          1.1982   -1.3991   -3.1230 H         1 <0>         0.0606
     37 H6          1.0749   -3.1031   -2.5682 H         1 <0>         0.0579
     38 H7          1.0913   -2.4925    0.4477 H         1 <0>         0.0581
     39 H8         -0.0213   -3.6301   -0.3858 H         1 <0>         0.0585
     40 H9         -0.6860   -2.3049    0.6285 H         1 <0>         0.0579
     41 H10        -1.4500   -0.2341    0.4019 H         1 <0>         0.1239
     42 H11        -1.1429    2.0954    1.1277 H         1 <0>         0.1290
     43 H12         2.3967    2.3582   -1.2830 H         1 <0>         0.1418
     44 H13         2.0681    0.0284   -1.9984 H         1 <0>         0.1314
     45 H14         3.2111    2.4881    0.3691 H         1 <0>         0.1196
     46 H15         5.4550    3.4899    0.3347 H         1 <0>         0.1140
     47 H16         5.7189    5.9345    0.3512 H         1 <0>         0.1470
     48 H17         1.4706    6.4086    0.4197 H         1 <0>         0.1240
     49 H18         3.0185    9.7164    3.1553 H         1 <0>         0.1578
     50 H19         2.3075    9.2226    5.4605 H         1 <0>         0.1544
     51 H20         4.9421    5.8700    5.5548 H         1 <0>         0.1535
     52 H21         5.6469    6.3589    3.2467 H         1 <0>         0.1576
@<TRIPOS>BOND
     1    1    2 1
     2    1   32 1
     3    1   33 1
     4    1   34 1
     5    2    3 1
     6    2    4 1
     7    2    5 1
     8    3   35 1
     9    3   36 1
    10    3   37 1
    11    4   38 1
    12    4   39 1
    13    4   40 1
    14    5   10 ar
    15    5    6 ar
    16    6    7 ar
    17    6   41 1
    18    7    8 ar
    19    7   42 1
    20    8    9 ar
    21    8   11 1
    22    9   10 ar
    23    9   43 1
    24   10   44 1
    25   11   12 2
    26   11   13 1
    27   13   18 ar
    28   13   14 ar
    29   14   15 ar
    30   14   45 1
    31   15   16 ar
    32   15   46 1
    33   16   17 ar
    34   16   47 1
    35   17   18 ar
    36   17   19 1
    37   18   48 1
    38   19   20 1
    39   20   21 2
    40   20   22 2
    41   20   23 1
    42   23   28 ar
    43   23   24 ar
    44   24   25 ar
    45   24   49 1
    46   25   26 ar
    47   25   50 1
    48   26   27 ar
    49   26   29 1
    50   27   28 ar
    51   27   51 1
    52   28   52 1
    53   29   30 2
    54   29   31 1
@<TRIPOS>MOLECULE
ZINC37637438
   51    53     0     0     0
SMALL
USER_CHARGES

@<TRIPOS>ATOM
      1 C1          0.2403    1.5263   -0.0153 C.3       1 <0>        -0.1120
      2 C2          0.2314    0.0193   -0.0211 C.ar      1 <0>        -0.0850
      3 C3          0.2263   -0.6673   -1.2211 C.ar      1 <0>        -0.1291
      4 C4          0.2181   -2.0494   -1.2265 C.ar      1 <0>        -0.0931
      5 C5          0.2154   -2.7453   -0.0318 C.ar      1 <0>        -0.0736
      6 C6          0.2214   -2.0590    1.1678 C.ar      1 <0>        -0.0591
      7 C7          0.2339   -0.6764    1.1731 C.ar      1 <0>        -0.1235
      8 C8          0.2179   -2.8175    2.4699 C.3       1 <0>        -0.1232
      9 C9          0.2054   -4.2523   -0.0377 C.3       1 <0>        -0.0599
     10 S1          1.9117   -4.8682   -0.0427 S.3       1 <0>        -0.0428
     11 C10         1.7321   -6.6210   -0.0493 C.ar      1 <0>         0.3369
     12 N1          2.8171   -7.3820   -0.0539 N.ar      1 <0>        -0.5837
     13 C11         2.7210   -8.7029   -0.0585 C.ar      1 <0>         0.1877
     14 C12         1.4695   -9.2895   -0.0584 C.ar      1 <0>        -0.3217
     15 C13         0.3466   -8.4627   -0.0535 C.ar      1 <0>         0.4546
     16 N2          0.5151   -7.1463   -0.0440 N.ar      1 <0>        -0.6119
     17 O1         -0.8992   -8.9958   -0.0536 O.3       1 <0>        -0.6917
     18 C14         1.3218  -10.7893   -0.0640 C.3       1 <0>        -0.0027
     19 C15         1.4044  -11.3075    1.3487 C.ar      1 <0>        -0.0515
     20 C16         1.4684  -10.4208    2.4076 C.ar      1 <0>        -0.0302
     21 C17         1.5442  -10.8961    3.7032 C.ar      1 <0>        -0.0570
     22 C18         1.5554  -12.2581    3.9404 C.ar      1 <0>        -0.0693
     23 C19         1.4904  -13.1444    2.8819 C.ar      1 <0>        -0.1233
     24 C20         1.4104  -12.6690    1.5861 C.ar      1 <0>        -0.0429
     25 C21         1.3343  -13.6354    0.4323 C.3       1 <0>        -0.1227
     26 N3          1.6138   -9.9468    4.8368 N.pl3     1 <0>         0.0381
     27 O2          1.6043   -8.7558    4.6294 O.2       1 <0>        -0.1585
     28 O3          1.6800  -10.3625    5.9702 O.3       1 <0>        -0.1741
     29 C22         3.9626   -9.5570   -0.0642 C.3       1 <0>        -0.0966
     30 H1          1.2701    1.8835   -0.0196 H         1 <0>         0.0684
     31 H2         -0.2763    1.8961   -0.9010 H         1 <0>         0.0639
     32 H3         -0.2664    1.8891    0.8790 H         1 <0>         0.0639
     33 H4          0.2285   -0.1237   -2.1543 H         1 <0>         0.1201
     34 H5          0.2135   -2.5857   -2.1639 H         1 <0>         0.1247
     35 H6          0.2424   -0.1401    2.1105 H         1 <0>         0.1209
     36 H7          1.2447   -3.0072    2.7827 H         1 <0>         0.0788
     37 H8         -0.2911   -2.2280    3.2325 H         1 <0>         0.0641
     38 H9         -0.3023   -3.7660    2.3365 H         1 <0>         0.0736
     39 H10        -0.3094   -4.6157    0.8517 H         1 <0>         0.1029
     40 H11        -0.3122   -4.6087   -0.9283 H         1 <0>         0.0965
     41 H12         0.3566  -11.0577   -0.4936 H         1 <0>         0.0936
     42 H13         2.1203  -11.2308   -0.6602 H         1 <0>         0.0752
     43 H14         1.4597   -9.3569    2.2223 H         1 <0>         0.1509
     44 H15         1.6153  -12.6295    4.9528 H         1 <0>         0.1465
     45 H16         1.4996  -14.2084    3.0672 H         1 <0>         0.1415
     46 H17         2.3412  -13.9376    0.1444 H         1 <0>         0.0796
     47 H18         0.7628  -14.5141    0.7314 H         1 <0>         0.0725
     48 H19         0.8438  -13.1536   -0.4135 H         1 <0>         0.0795
     49 H20         4.2642   -9.7666    0.9620 H         1 <0>         0.0661
     50 H21         3.7565  -10.4943   -0.5810 H         1 <0>         0.0684
     51 H22         4.7652   -9.0278   -0.5779 H         1 <0>         0.0702
@<TRIPOS>BOND
     1    1    2 1
     2    1   30 1
     3    1   31 1
     4    1   32 1
     5    2    7 ar
     6    2    3 ar
     7    3    4 ar
     8    3   33 1
     9    4    5 ar
    10    4   34 1
    11    5    6 ar
    12    5    9 1
    13    6    7 ar
    14    6    8 1
    15    7   35 1
    16    8   36 1
    17    8   37 1
    18    8   38 1
    19    9   39 1
    20    9   40 1
    21    9   10 1
    22   10   11 1
    23   11   12 ar
    24   11   16 ar
    25   12   13 ar
    26   13   14 ar
    27   13   29 1
    28   14   15 ar
    29   14   18 1
    30   15   16 ar
    31   15   17 1
    32   18   19 1
    33   18   41 1
    34   18   42 1
    35   19   24 ar
    36   19   20 ar
    37   20   21 ar
    38   20   43 1
    39   21   22 ar
    40   21   26 1
    41   22   23 ar
    42   22   44 1
    43   23   24 ar
    44   23   45 1
    45   24   25 1
    46   25   46 1
    47   25   47 1
    48   25   48 1
    49   26   27 2
    50   26   28 1
    51   29   49 1
    52   29   50 1
    53   29   51 1
@<TRIPOS>MOLECULE
ZINC40928693
   53    55     0     0     0
SMALL
USER_CHARGES

@<TRIPOS>ATOM
      1 C1         -1.1556    1.1408   -0.3801 C.3       1 <0>        -0.1512
      2 C2         -0.4009   -0.1646   -0.1212 C.3       1 <0>        -0.1249
      3 C3          0.1681   -0.6948   -1.4388 C.3       1 <0>         0.0544
      4 O1          0.8730   -1.9140   -1.1970 O.3       1 <0>        -0.3081
      5 C4          1.4428   -2.5192   -2.2693 C.ar      1 <0>         0.1700
      6 C5          1.3289   -1.9440   -3.5309 C.ar      1 <0>        -0.2184
      7 C6          1.9008   -2.5483   -4.6143 C.ar      1 <0>        -0.0255
      8 C7          2.6039   -3.7509   -4.4528 C.ar      1 <0>        -0.1617
      9 C8          2.7153   -4.3258   -3.1784 C.ar      1 <0>        -0.0427
     10 C9          2.1436   -3.7093   -2.1019 C.ar      1 <0>        -0.1561
     11 C10         3.2189   -4.4041   -5.6102 C.2       1 <0>         0.1111
     12 C11         3.3599   -5.7747   -5.6336 C.2       1 <0>        -0.1491
     13 C12         2.7767   -6.5722   -4.5970 C.1       1 <0>         0.2398
     14 N1          2.3141   -7.2050   -3.7748 N.1       1 <0>        -0.3933
     15 C13         4.1093   -6.4184   -6.7231 C.2       1 <0>         0.5828
     16 O2          4.6048   -5.7408   -7.6037 O.2       1 <0>        -0.4899
     17 N2          4.2472   -7.7589   -6.7460 N.am      1 <0>        -0.6054
     18 C14         4.9546   -8.3664   -7.7745 C.2       1 <0>         0.3149
     19 N3          5.1957   -9.6482   -7.9790 N.2       1 <0>        -0.5294
     20 C15         5.8967  -10.0576   -9.0258 C.2       1 <0>         0.1202
     21 C16         6.3801   -9.1353   -9.9116 C.2       1 <0>        -0.2387
     22 S1          5.7741   -7.6216   -9.1775 S.3       1 <0>         0.1265
     23 C17         6.1552  -11.5030   -9.2345 C.ar      1 <0>        -0.0313
     24 C18         6.8987  -11.9291  -10.3339 C.ar      1 <0>        -0.0992
     25 C19         7.1360  -13.2753  -10.5232 C.ar      1 <0>        -0.1188
     26 C20         6.6378  -14.2012   -9.6243 C.ar      1 <0>        -0.0747
     27 C21         5.8989  -13.7842   -8.5317 C.ar      1 <0>        -0.1215
     28 C22         5.6605  -12.4401   -8.3290 C.ar      1 <0>        -0.0823
     29 C23         6.9004  -15.6699   -9.8364 C.3       1 <0>        -0.0877
     30 C24         8.1995  -16.0629   -9.1302 C.3       1 <0>        -0.1474
     31 H1         -0.4728    1.8774   -0.8035 H         1 <0>         0.0588
     32 H2         -1.9708    0.9565   -1.0798 H         1 <0>         0.0586
     33 H3         -1.5610    1.5185    0.5586 H         1 <0>         0.0671
     34 H4          0.4143    0.0196    0.5786 H         1 <0>         0.0754
     35 H5         -1.0836   -0.9013    0.3023 H         1 <0>         0.0752
     36 H6         -0.6471   -0.8790   -2.1385 H         1 <0>         0.0670
     37 H7          0.8509    0.0419   -1.8622 H         1 <0>         0.0676
     38 H8          0.7868   -1.0181   -3.6540 H         1 <0>         0.1382
     39 H9          1.8113   -2.1010   -5.5933 H         1 <0>         0.1405
     40 H10         3.2555   -5.2518   -3.0478 H         1 <0>         0.1345
     41 H11         2.2324   -4.1486   -1.1193 H         1 <0>         0.1391
     42 H12         3.5620   -3.8116   -6.4454 H         1 <0>         0.1693
     43 H13         3.8522   -8.2991   -6.0439 H         1 <0>         0.4264
     44 H14         6.9637   -9.2809  -10.8086 H         1 <0>         0.2000
     45 H15         7.2879  -11.2071  -11.0365 H         1 <0>         0.1253
     46 H16         7.7116  -13.6066  -11.3748 H         1 <0>         0.1251
     47 H17         5.5117  -14.5116   -7.8335 H         1 <0>         0.1233
     48 H18         5.0880  -12.1152   -7.4728 H         1 <0>         0.1309
     49 H19         6.0738  -16.2499   -9.4259 H         1 <0>         0.0723
     50 H20         6.9914  -15.8723  -10.9036 H         1 <0>         0.0726
     51 H21         8.3895  -17.1252   -9.2836 H         1 <0>         0.0587
     52 H22         9.0261  -15.4830   -9.5408 H         1 <0>         0.0560
     53 H23         8.1085  -15.8605   -8.0630 H         1 <0>         0.0558
@<TRIPOS>BOND
     1    1    2 1
     2    1   31 1
     3    1   32 1
     4    1   33 1
     5    2    3 1
     6    2   34 1
     7    2   35 1
     8    3    4 1
     9    3   36 1
    10    3   37 1
    11    4    5 1
    12    5   10 ar
    13    5    6 ar
    14    6    7 ar
    15    6   38 1
    16    7    8 ar
    17    7   39 1
    18    8    9 ar
    19    8   11 1
    20    9   10 ar
    21    9   40 1
    22   10   41 1
    23   11   12 2
    24   11   42 1
    25   12   13 1
    26   12   15 1
    27   13   14 3
    28   15   16 2
    29   15   17 am
    30   17   18 1
    31   17   43 1
    32   18   22 1
    33   18   19 2
    34   19   20 1
    35   20   21 2
    36   20   23 1
    37   21   22 1
    38   21   44 1
    39   23   28 ar
    40   23   24 ar
    41   24   25 ar
    42   24   45 1
    43   25   26 ar
    44   25   46 1
    45   26   27 ar
    46   26   29 1
    47   27   28 ar
    48   27   47 1
    49   28   48 1
    50   29   30 1
    51   29   49 1
    52   29   50 1
    53   30   51 1
    54   30   52 1
    55   30   53 1
@<TRIPOS>MOLECULE
ZINC16931783
   55    57     0     0     0
SMALL
USER_CHARGES

@<TRIPOS>ATOM
      1 C1          0.2618   -0.4968    0.4029 C.3       1 <0>        -0.1533
      2 C2          0.6857   -1.8620   -0.1425 C.3       1 <0>        -0.1123
      3 C3          1.3178   -1.6852   -1.5246 C.3       1 <0>         0.0361
      4 H1          0.6243   -1.1533   -2.1759 H         1 <0>         0.1039
      5 C4          1.6233   -3.0381   -2.1140 C.2       1 <0>         0.3253
      6 O1          2.7475   -3.4767   -2.0683 O.2       1 <0>        -0.4252
      7 C5          0.5259   -3.8436   -2.7605 C.3       1 <0>        -0.2042
      8 O2          2.5277   -0.9345   -1.4025 O.3       1 <0>        -0.2827
      9 C6          2.9786   -0.3069   -2.5183 C.ar      1 <0>         0.1625
     10 C7          2.2580   -0.3830   -3.6991 C.ar      1 <0>        -0.2210
     11 C8          2.7179    0.2563   -4.8346 C.ar      1 <0>        -0.0556
     12 C9          3.9005    0.9775   -4.8039 C.ar      1 <0>        -0.1502
     13 C10         4.6319    1.0649   -3.6396 C.ar      1 <0>        -0.0544
     14 C11         4.1751    0.4276   -2.4800 C.ar      1 <0>        -0.1112
     15 C12         4.9450    0.5211   -1.2336 C.2       1 <0>         0.0644
     16 C13         6.2499    0.8937   -1.2681 C.2       1 <0>        -0.2177
     17 C14         7.1643    1.2048   -0.1530 C.2       1 <0>         0.5600
     18 O3          6.7961    1.1501    1.0058 O.2       1 <0>        -0.4957
     19 N1          8.4022    1.5454   -0.4696 N.am      1 <0>        -0.5388
     20 C15         8.7998    1.6016   -1.7876 C.2       1 <0>         0.3670
     21 N2          9.9796    1.9182   -2.2724 N.2       1 <0>        -0.4339
     22 C16        10.1860    1.9181   -3.6255 C.ar      1 <0>         0.0608
     23 C17         9.7096    0.8613   -4.4068 C.ar      1 <0>        -0.1474
     24 C18         9.9172    0.8591   -5.7716 C.ar      1 <0>        -0.1217
     25 C19        10.5955    1.8992   -6.3754 C.ar      1 <0>        -0.0780
     26 C20        11.0773    2.9631   -5.6072 C.ar      1 <0>        -0.1225
     27 C21        10.8667    2.9746   -4.2285 C.ar      1 <0>        -0.0520
     28 C22        11.8020    4.0739   -6.2542 C.2       1 <0>         0.5214
     29 O4         11.9817    4.0645   -7.4638 O.co2     1 <0>        -0.6837
     30 O5         12.2228    5.0039   -5.5807 O.co2     1 <0>        -0.6829
     31 S1          7.3242    1.1317   -2.6762 S.3       1 <0>        -0.0284
     32 C23         9.3600    1.8666    0.5914 C.3       1 <0>         0.0998
     33 C24        10.0907    0.5930    1.0215 C.3       1 <0>        -0.1643
     34 H2          1.1356    0.1497    0.4830 H         1 <0>         0.0662
     35 H3         -0.4638   -0.0448   -0.2734 H         1 <0>         0.0571
     36 H4         -0.1885   -0.6228    1.3875 H         1 <0>         0.0639
     37 H5          1.4113   -2.3140    0.5338 H         1 <0>         0.0818
     38 H6         -0.1881   -2.5086   -0.2227 H         1 <0>         0.0903
     39 H7         -0.4113   -3.2896   -2.7067 H         1 <0>         0.0835
     40 H8          0.7786   -4.0297   -3.8043 H         1 <0>         0.0975
     41 H9          0.4168   -4.7939   -2.2380 H         1 <0>         0.0972
     42 H10         1.3353   -0.9432   -3.7323 H         1 <0>         0.1293
     43 H11         2.1519    0.1930   -5.7522 H         1 <0>         0.1311
     44 H12         4.2509    1.4734   -5.6971 H         1 <0>         0.1351
     45 H13         5.5533    1.6278   -3.6204 H         1 <0>         0.1473
     46 H14         4.4732    0.2934   -0.2891 H         1 <0>         0.1573
     47 H15         9.1782    0.0443   -3.9415 H         1 <0>         0.1211
     48 H16         9.5475    0.0396   -6.3700 H         1 <0>         0.1210
     49 H17        10.7545    1.8906   -7.4436 H         1 <0>         0.1315
     50 H18        11.2327    3.7961   -3.6304 H         1 <0>         0.1350
     51 H19        10.0833    2.5927    0.2203 H         1 <0>         0.1005
     52 H20         8.8288    2.2867    1.4455 H         1 <0>         0.0936
     53 H21         9.3674   -0.1332    1.3925 H         1 <0>         0.0577
     54 H22        10.6219    0.1729    0.1674 H         1 <0>         0.0628
     55 H23        10.8033    0.8319    1.8108 H         1 <0>         0.0750
@<TRIPOS>BOND
     1    1    2 1
     2    1   34 1
     3    1   35 1
     4    1   36 1
     5    2    3 1
     6    2   37 1
     7    2   38 1
     8    3    4 1
     9    3    5 1
    10    3    8 1
    11    5    6 2
    12    5    7 1
    13    7   39 1
    14    7   40 1
    15    7   41 1
    16    8    9 1
    17    9   14 ar
    18    9   10 ar
    19   10   11 ar
    20   10   42 1
    21   11   12 ar
    22   11   43 1
    23   12   13 ar
    24   12   44 1
    25   13   14 ar
    26   13   45 1
    27   14   15 1
    28   15   16 2
    29   15   46 1
    30   16   31 1
    31   16   17 1
    32   17   18 2
    33   17   19 am
    34   19   20 1
    35   19   32 1
    36   20   21 2
    37   20   31 1
    38   21   22 1
    39   22   27 ar
    40   22   23 ar
    41   23   24 ar
    42   23   47 1
    43   24   25 ar
    44   24   48 1
    45   25   26 ar
    46   25   49 1
    47   26   27 ar
    48   26   28 1
    49   27   50 1
    50   28   29 2
    51   28   30 1
    52   32   33 1
    53   32   51 1
    54   32   52 1
    55   33   53 1
    56   33   54 1
    57   33   55 1
@<TRIPOS>MOLECULE
ZINC66145566
   40    41     0     0     0
SMALL
USER_CHARGES

@<TRIPOS>ATOM
      1 C1          0.7101   -2.6565    2.5062 C.3       1 <0>        -0.1162
      2 C2          0.3956   -2.0060    1.1837 C.ar      1 <0>        -0.0863
      3 C3          0.5350   -2.7221    0.0107 C.ar      1 <0>        -0.0919
      4 C4          0.2464   -2.1255   -1.2036 C.ar      1 <0>        -0.0863
      5 C5         -0.1823   -0.8108   -1.2460 C.ar      1 <0>        -0.0874
      6 C6         -0.3235   -0.0913   -0.0753 C.ar      1 <0>        -0.0787
      7 C7         -0.0396   -0.6894    1.1438 C.ar      1 <0>         0.1084
      8 O1         -0.1824    0.0154    2.2972 O.3       1 <0>        -0.3036
      9 C8         -1.4940    0.0782    2.8610 C.3       1 <0>         0.1130
     10 H1         -2.2334    0.0918    2.0602 H         1 <0>         0.1129
     11 C9         -1.7265   -1.1457    3.7492 C.3       1 <0>        -0.1761
     12 C10        -1.6259    1.3312    3.6878 C.2       1 <0>         0.4920
     13 O2         -0.6925    2.0924    3.7843 O.2       1 <0>        -0.4840
     14 O3         -2.7811    1.6019    4.3173 O.3       1 <0>        -0.2710
     15 C11        -2.8911    2.7899    4.9637 C.ar      1 <0>         0.1310
     16 C12        -2.5875    2.8788    6.3138 C.ar      1 <0>        -0.1324
     17 C13        -2.6997    4.0879    6.9708 C.ar      1 <0>        -0.0856
     18 C14        -3.1157    5.2212    6.2889 C.ar      1 <0>        -0.1006
     19 C15        -3.4213    5.1520    4.9467 C.ar      1 <0>        -0.0435
     20 C16        -3.3068    3.9346    4.2679 C.ar      1 <0>        -0.1308
     21 C17        -3.6265    3.8538    2.8331 C.2       1 <0>         0.5257
     22 O4         -3.9887    4.8545    2.2298 O.co2     1 <0>        -0.6760
     23 O5         -3.5299    2.7860    2.2441 O.co2     1 <0>        -0.6725
     24 Br1        -3.2650    6.8690    7.2046 Br        1 <0>        -0.0630
     25 C18        -0.7905    1.3408   -0.1220 C.3       1 <0>        -0.1221
     26 Br2         0.4387   -3.1080   -2.8078 Br        1 <0>        -0.0546
     27 H2         -0.1864   -3.1381    2.8965 H         1 <0>         0.0760
     28 H3          1.4923   -3.4028    2.3671 H         1 <0>         0.0684
     29 H4          1.0520   -1.8990    3.2115 H         1 <0>         0.0791
     30 H5          0.8699   -3.7484    0.0416 H         1 <0>         0.1355
     31 H6         -0.4065   -0.3466   -2.1951 H         1 <0>         0.1372
     32 H7         -2.7329   -1.1062    4.1661 H         1 <0>         0.0866
     33 H8         -1.6149   -2.0525    3.1547 H         1 <0>         0.0769
     34 H9         -0.9975   -1.1504    4.5595 H         1 <0>         0.0710
     35 H10        -2.2631    2.0006    6.8524 H         1 <0>         0.1328
     36 H11        -2.4623    4.1513    8.0225 H         1 <0>         0.1338
     37 H12        -3.7449    6.0371    4.4192 H         1 <0>         0.1449
     38 H13        -1.8689    1.3765    0.0330 H         1 <0>         0.0879
     39 H14        -0.2917    1.9114    0.6614 H         1 <0>         0.0799
     40 H15        -0.5488    1.7702   -1.0943 H         1 <0>         0.0698
@<TRIPOS>BOND
     1    1    2 1
     2    1   27 1
     3    1   28 1
     4    1   29 1
     5    2    7 ar
     6    2    3 ar
     7    3    4 ar
     8    3   30 1
     9    4    5 ar
    10    4   26 1
    11    5    6 ar
    12    5   31 1
    13    6    7 ar
    14    6   25 1
    15    7    8 1
    16    8    9 1
    17    9   10 1
    18    9   11 1
    19    9   12 1
    20   11   32 1
    21   11   33 1
    22   11   34 1
    23   12   13 2
    24   12   14 1
    25   14   15 1
    26   15   20 ar
    27   15   16 ar
    28   16   17 ar
    29   16   35 1
    30   17   18 ar
    31   17   36 1
    32   18   19 ar
    33   18   24 1
    34   19   20 ar
    35   19   37 1
    36   20   21 1
    37   21   22 2
    38   21   23 1
    39   25   38 1
    40   25   39 1
    41   25   40 1
@<TRIPOS>MOLECULE
ZINC00072083
   24    25     0     0     0
SMALL
USER_CHARGES
N-(4-bromo-2-chloro-phenyl)-1-(3-pyridyl)methanimine
@<TRIPOS>ATOM
      1 C1         -5.1480   -2.5931    1.4776 C.ar      1 <0>        -0.1798
      2 C2         -3.9338   -1.9308    1.5065 C.ar      1 <0>        -0.0394
      3 C3         -3.7952   -0.7647    0.7409 C.ar      1 <0>        -0.1396
      4 C4         -4.8801   -0.3282   -0.0252 C.ar      1 <0>         0.1549
      5 N1         -6.0131   -0.9983   -0.0227 N.ar      1 <0>        -0.4903
      6 C5         -6.1728   -2.0957    0.6926 C.ar      1 <0>         0.1214
      7 C6         -2.5271   -0.0158    0.7390 C.2       1 <0>         0.2218
      8 N2         -2.4091    1.0634    0.0192 N.2       1 <0>        -0.4748
      9 C7         -1.2308    1.7591    0.0174 C.ar      1 <0>         0.1089
     10 C8         -0.0126    1.0758    0.0080 C.ar      1 <0>        -0.1363
     11 C9          1.1713    1.7829    0.0004 C.ar      1 <0>        -0.0698
     12 C10         1.1551    3.1677    0.0081 C.ar      1 <0>        -0.0889
     13 C11        -0.0480    3.8520    0.0238 C.ar      1 <0>        -0.0703
     14 C12        -1.2407    3.1567    0.0314 C.ar      1 <0>        -0.0184
     15 Cl1        -2.7490    4.0162    0.0505 Cl        1 <0>        -0.0360
     16 Br1         2.7840    4.1281   -0.0023 Br        1 <0>        -0.0305
     17 H1         -5.2928   -3.4924    2.0579 H         1 <0>         0.1426
     18 H2         -3.1154   -2.3000    2.1068 H         1 <0>         0.1423
     19 H3         -4.7879    0.5661   -0.6237 H         1 <0>         0.1690
     20 H4         -7.1198   -2.6141    0.6650 H         1 <0>         0.1607
     21 H5         -1.6950   -0.3615    1.3344 H         1 <0>         0.1166
     22 H6          0.0021   -0.0041    0.0020 H         1 <0>         0.1425
     23 H7          2.1136    1.2554   -0.0118 H         1 <0>         0.1437
     24 H8         -0.0537    4.9320    0.0296 H         1 <0>         0.1498
@<TRIPOS>BOND
     1    1    6 ar
     2    1    2 ar
     3    1   17 1
     4    2    3 ar
     5    2   18 1
     6    3    4 ar
     7    3    7 1
     8    4    5 ar
     9    4   19 1
    10    5    6 ar
    11    6   20 1
    12    7    8 2
    13    7   21 1
    14    8    9 1
    15    9   14 ar
    16    9   10 ar
    17   10   11 ar
    18   10   22 1
    19   11   12 ar
    20   11   23 1
    21   12   13 ar
    22   12   16 1
    23   13   14 ar
    24   13   24 1
    25   14   15 1
@<TRIPOS>MOLECULE
ZINC39523870
   37    38     0     0     0
SMALL
USER_CHARGES

@<TRIPOS>ATOM
      1 C1         -0.0187    1.5258    0.0104 C.3       1 <0>        -0.1530
      2 C2          0.0021   -0.0041    0.0020 C.3       1 <0>         0.0570
      3 O1          0.6932   -0.4774    1.1597 O.3       1 <0>        -0.3833
      4 C3          0.7699   -1.9016    1.2491 C.3       1 <0>         0.0985
      5 H1          0.7819   -2.3284    0.2462 H         1 <0>         0.0669
      6 C4         -0.4450   -2.4307    2.0139 C.3       1 <0>        -0.1449
      7 C5         -0.3629   -3.9554    2.1106 C.3       1 <0>        -0.1159
      8 C6          0.9172   -4.3513    2.8492 C.3       1 <0>        -0.1078
      9 C7          2.1317   -3.8229    2.0828 C.3       1 <0>         0.0880
     10 C8          2.0499   -2.2981    1.9875 C.3       1 <0>        -0.1470
     11 C9          2.1440   -4.4215    0.6743 C.3       1 <0>        -0.1122
     12 C10         3.3715   -3.9075   -0.0830 C.3       1 <0>        -0.1287
     13 C11         4.6353   -4.2775    0.6984 C.3       1 <0>        -0.1085
     14 C12         4.5510   -3.6825    2.1058 C.3       1 <0>         0.0810
     15 H2          4.4832   -2.5968    2.0376 H         1 <0>         0.0959
     16 N1          3.3610   -4.2051    2.7893 N.3       1 <0>        -0.2800
     17 F1          3.3265   -3.8147    4.0288 F         1 <0>        -0.0830
     18 Br1         6.1595   -4.1757    3.1229 Br        1 <0>        -0.1158
     19 H3          1.0039    1.9031    0.0027 H         1 <0>         0.0627
     20 H4         -0.5459    1.8868   -0.8726 H         1 <0>         0.0719
     21 H5         -0.5289    1.8773    0.9072 H         1 <0>         0.0631
     22 H6         -1.0205   -0.3814    0.0098 H         1 <0>         0.0487
     23 H7          0.5123   -0.3556   -0.8948 H         1 <0>         0.0482
     24 H8         -0.4574   -2.0032    3.0165 H         1 <0>         0.0722
     25 H9         -1.3568   -2.1486    1.4875 H         1 <0>         0.0680
     26 H10        -1.2283   -4.3320    2.6560 H         1 <0>         0.0750
     27 H11        -0.3510   -4.3829    1.1081 H         1 <0>         0.0704
     28 H12         0.9056   -3.9232    3.8516 H         1 <0>         0.0710
     29 H13         0.9757   -5.4375    2.9186 H         1 <0>         0.0816
     30 H14         2.9154   -1.9212    1.4425 H         1 <0>         0.0766
     31 H15         2.0379   -1.8713    2.9904 H         1 <0>         0.0770
     32 H16         2.1867   -5.5086    0.7413 H         1 <0>         0.0853
     33 H17         1.2389   -4.1243    0.1447 H         1 <0>         0.0861
     34 H18         3.4075   -4.3651   -1.0717 H         1 <0>         0.0837
     35 H19         3.3098   -2.8240   -0.1840 H         1 <0>         0.0689
     36 H20         4.7168   -5.3624    0.7661 H         1 <0>         0.0918
     37 H21         5.5102   -3.8775    0.1859 H         1 <0>         0.0905
@<TRIPOS>BOND
     1    1    2 1
     2    1   19 1
     3    1   20 1
     4    1   21 1
     5    2    3 1
     6    2   22 1
     7    2   23 1
     8    3    4 1
     9    4    5 1
    10    4   10 1
    11    4    6 1
    12    6    7 1
    13    6   24 1
    14    6   25 1
    15    7    8 1
    16    7   26 1
    17    7   27 1
    18    8    9 1
    19    8   28 1
    20    8   29 1
    21    9   16 1
    22    9   10 1
    23    9   11 1
    24   10   30 1
    25   10   31 1
    26   11   12 1
    27   11   32 1
    28   11   33 1
    29   12   13 1
    30   12   34 1
    31   12   35 1
    32   13   14 1
    33   13   36 1
    34   13   37 1
    35   14   15 1
    36   14   16 1
    37   14   18 1
    38   16   17 1
@<TRIPOS>MOLECULE
ZINC42251445
   38    40     0     0     0
SMALL
USER_CHARGES

@<TRIPOS>ATOM
      1 C1         -0.0167    1.3789    0.0096 C.ar      1 <0>        -0.1018
      2 C2          1.1705    2.0873    0.0021 C.ar      1 <0>        -0.0804
      3 C3          2.3773    1.4143   -0.0131 C.ar      1 <0>        -0.1026
      4 C4          2.3978    0.0296   -0.0207 C.ar      1 <0>         0.1328
      5 C5          1.2090   -0.6794   -0.0132 C.ar      1 <0>        -0.1304
      6 C6          0.0021   -0.0041    0.0020 C.ar      1 <0>        -0.0630
      7 Br1        -1.6226   -0.9717    0.0124 Br        1 <0>        -0.0336
      8 F1          3.5774   -0.6288   -0.0360 F         1 <0>        -0.1230
      9 C7          3.6711    2.1872   -0.0218 C.3       1 <0>         0.0926
     10 N1          4.2883    2.1238    1.3098 N.3       1 <0>        -0.5245
     11 C8          3.4738    2.8398    2.3027 C.3       1 <0>         0.0117
     12 C9          4.1186    2.7004    3.6840 C.3       1 <0>         0.0650
     13 O1          5.4633    3.1855    3.6306 O.3       1 <0>        -0.3746
     14 C10         6.2791    2.5073    2.6728 C.3       1 <0>         0.1010
     15 H1          6.3346    1.4494    2.9296 H         1 <0>         0.0660
     16 C11         5.6587    2.6603    1.2820 C.3       1 <0>         0.0559
     17 H2          6.2531    2.1094    0.5531 H         1 <0>         0.0943
     18 C12         5.6059    4.1430    0.9063 C.3       1 <0>        -0.1486
     19 C13         7.0210    4.7237    0.9078 C.3       1 <0>        -0.1148
     20 C14         7.6279    4.5795    2.3051 C.3       1 <0>        -0.1179
     21 C15         7.6858    3.1037    2.6744 C.3       1 <0>        -0.1115
     22 H3         -0.9593    1.9058    0.0260 H         1 <0>         0.1409
     23 H4          1.1548    3.1671    0.0077 H         1 <0>         0.1397
     24 H5          1.2239   -1.7592   -0.0195 H         1 <0>         0.1462
     25 H6          4.3485    1.7534   -0.7573 H         1 <0>         0.0908
     26 H7          3.4714    3.2270   -0.2806 H         1 <0>         0.0561
     27 H8          3.4159    3.8944    2.0332 H         1 <0>         0.0497
     28 H9          2.4706    2.4143    2.3250 H         1 <0>         0.0846
     29 H10         3.5509    3.2815    4.4107 H         1 <0>         0.0984
     30 H11         4.1219    1.6512    3.9795 H         1 <0>         0.0583
     31 H12         5.1706    4.2504   -0.0873 H         1 <0>         0.0608
     32 H13         4.9928    4.6793    1.6305 H         1 <0>         0.0727
     33 H14         7.6358    4.1848    0.1870 H         1 <0>         0.0616
     34 H15         6.9814    5.7784    0.6357 H         1 <0>         0.0627
     35 H16         8.6347    4.9971    2.3092 H         1 <0>         0.0636
     36 H17         7.0095    5.1128    3.0271 H         1 <0>         0.0705
     37 H18         8.1207    3.0045    3.6690 H         1 <0>         0.0732
     38 H19         8.3062    2.5716    1.9532 H         1 <0>         0.0778
@<TRIPOS>BOND
     1    1    6 ar
     2    1    2 ar
     3    1   22 1
     4    2    3 ar
     5    2   23 1
     6    3    4 ar
     7    3    9 1
     8    4    5 ar
     9    4    8 1
    10    5    6 ar
    11    5   24 1
    12    6    7 1
    13    9   10 1
    14    9   25 1
    15    9   26 1
    16   10   16 1
    17   10   11 1
    18   11   12 1
    19   11   27 1
    20   11   28 1
    21   12   13 1
    22   12   29 1
    23   12   30 1
    24   13   14 1
    25   14   15 1
    26   14   21 1
    27   14   16 1
    28   16   17 1
    29   16   18 1
    30   18   19 1
    31   18   31 1
    32   18   32 1
    33   19   20 1
    34   19   33 1
    35   19   34 1
    36   20   21 1
    37   20   35 1
    38   20   36 1
    39   21   37 1
    40   21   38 1
@<TRIPOS>MOLECULE
ZINC53171221
   28    30     0     0     0
SMALL
USER_CHARGES

@<TRIPOS>ATOM
      1 C1         -0.0167    1.3781    0.0096 C.ar      1 <0>        -0.0850
      2 C2          1.1688    2.0879    0.0021 C.ar      1 <0>        -0.0723
      3 C3          2.3816    1.4131   -0.0131 C.ar      1 <0>         0.0904
      4 C4          2.4005    0.0233   -0.0208 C.ar      1 <0>         0.0853
      5 C5          1.2092   -0.6828   -0.0132 C.ar      1 <0>         0.0806
      6 C6          0.0021   -0.0041    0.0020 C.ar      1 <0>        -0.1012
      7 F1          1.2246   -2.0337   -0.0211 F         1 <0>        -0.1161
      8 F2          3.5788   -0.6375   -0.0360 F         1 <0>        -0.1139
      9 N1          3.5853    2.1320   -0.0212 N.pl3     1 <0>        -0.4319
     10 C7          4.2655    2.5572   -1.1228 C.2       1 <0>         0.2884
     11 N2          5.3418    3.1943   -0.7646 N.2       1 <0>        -0.4477
     12 C8          5.4278    3.2226    0.5909 C.ar      1 <0>         0.0697
     13 C9          4.3006    2.5472    1.0877 C.ar      1 <0>         0.0483
     14 C10         4.1160    2.4208    2.4585 C.ar      1 <0>         0.0740
     15 C11         5.0427    2.9640    3.3291 C.ar      1 <0>         0.0963
     16 C12         6.1562    3.6354    2.8404 C.ar      1 <0>        -0.1301
     17 C13         6.3568    3.7622    1.4847 C.ar      1 <0>        -0.0329
     18 F3          4.8639    2.8415    4.6626 F         1 <0>        -0.1179
     19 F4          3.0345    1.7696    2.9396 F         1 <0>        -0.1236
     20 C14         3.8340    2.3235   -2.5476 C.3       1 <0>         0.0350
     21 Cl1         2.7901    3.6894   -3.0912 Cl        1 <0>        -0.1358
     22 H1         -0.9597    1.9042    0.0260 H         1 <0>         0.1576
     23 H2          1.1517    3.1677    0.0077 H         1 <0>         0.1499
     24 H3         -0.9264   -0.5557    0.0083 H         1 <0>         0.1599
     25 H4          6.8732    4.0564    3.5297 H         1 <0>         0.1604
     26 H5          7.2244    4.2869    1.1126 H         1 <0>         0.1561
     27 H6          4.7138    2.2614   -3.1881 H         1 <0>         0.1405
     28 H7          3.2733    1.3908   -2.6092 H         1 <0>         0.1159
@<TRIPOS>BOND
     1    1    6 ar
     2    1    2 ar
     3    1   22 1
     4    2    3 ar
     5    2   23 1
     6    3    4 ar
     7    3    9 1
     8    4    5 ar
     9    4    8 1
    10    5    6 ar
    11    5    7 1
    12    6   24 1
    13    9   13 1
    14    9   10 1
    15   10   11 2
    16   10   20 1
    17   11   12 1
    18   12   17 ar
    19   12   13 ar
    20   13   14 ar
    21   14   15 ar
    22   14   19 1
    23   15   16 ar
    24   15   18 1
    25   16   17 ar
    26   16   25 1
    27   17   26 1
    28   20   21 1
    29   20   27 1
    30   20   28 1
@<TRIPOS>MOLECULE
ZINC38885706
   16    17     0     0     0
SMALL
USER_CHARGES

@<TRIPOS>ATOM
      1 C1         -0.0184    1.5028    0.0103 C.3       1 <0>        -0.1318
      2 C2          0.0021   -0.0041    0.0020 C.ar      1 <0>        -0.0181
      3 C3          0.0054   -0.6788   -1.2185 C.ar      1 <0>        -0.0513
      4 C4          0.0231   -2.0319   -1.2790 C.ar      1 <0>        -0.0325
      5 C5          0.0392   -2.7997   -0.0821 C.ar      1 <0>         0.0797
      6 C6          0.0362   -2.0941    1.1941 C.ar      1 <0>         0.0906
      7 C7          0.0223   -0.6722    1.1802 C.ar      1 <0>        -0.0479
      8 Br1         0.0253    0.2876    2.8095 Br        1 <0>        -0.0039
      9 N1          0.0530   -2.9134    2.2462 N.2       1 <0>        -0.4892
     10 S1          0.0704   -4.4023    1.6370 S.3       1 <0>         0.6722
     11 N2          0.0582   -4.1263    0.0521 N.2       1 <0>        -0.4854
     12 Br2         0.0256   -2.9015   -2.9582 Br        1 <0>        -0.0050
     13 H1          1.0042    1.8801    0.0026 H         1 <0>         0.0917
     14 H2         -0.5455    1.8639   -0.8728 H         1 <0>         0.0846
     15 H3         -0.5286    1.8543    0.9071 H         1 <0>         0.0861
     16 H4         -0.0067   -0.1096   -2.1362 H         1 <0>         0.1600
@<TRIPOS>BOND
     1    1    2 1
     2    1   13 1
     3    1   14 1
     4    1   15 1
     5    2    7 ar
     6    2    3 ar
     7    3    4 ar
     8    3   16 1
     9    4    5 ar
    10    4   12 1
    11    5   11 2
    12    5    6 ar
    13    6    7 ar
    14    6    9 2
    15    7    8 1
    16    9   10 1
    17   10   11 1
@<TRIPOS>MOLECULE
ZINC05237798
   43    46     0     0     0
SMALL
USER_CHARGES
4-acetonylsulfanyl-9-tetralin-2-yl-7-thia-3,5-diazabicyclo[4.3.0]nona-4,8,10-trien-2-one
@<TRIPOS>ATOM
      1 C1        -10.5739   -0.5433    3.4203 C.3       1 <0>        -0.1854
      2 C2         -9.5005    0.4485    3.7880 C.2       1 <0>         0.3694
      3 O1         -9.6775    1.2192    4.7007 O.2       1 <0>        -0.4373
      4 C3         -8.2062    0.4786    3.0167 C.3       1 <0>        -0.1625
      5 S1         -7.1307    1.7678    3.6930 S.3       1 <0>         0.0702
      6 C4         -5.7326    1.5854    2.6361 C.2       1 <0>         0.3701
      7 N1         -4.6479    2.3955    2.8082 N.am      1 <0>        -0.6230
      8 H1         -4.6596    3.0840    3.5333 H         1 <0>         0.4309
      9 C5         -3.5630    2.2847    2.0200 C.2       1 <0>         0.5594
     10 O2         -2.6017    3.0158    2.1869 O.2       1 <0>        -0.5024
     11 C6         -3.5491    1.2956    0.9889 C.2       1 <0>        -0.2479
     12 C7         -2.5032    0.9923    0.0168 C.2       1 <0>        -0.0074
     13 C8         -2.7160    0.0025   -0.8815 C.2       1 <0>        -0.1834
     14 S2         -4.3507   -0.5803   -0.4757 S.3       1 <0>         0.1536
     15 C9         -4.7085    0.5084    0.8789 C.2       1 <0>         0.1187
     16 N2         -5.7477    0.6685    1.6901 N.2       1 <0>        -0.5028
     17 C10        -1.2293    1.7502    0.0174 C.ar      1 <0>        -0.0477
     18 C11        -1.2413    3.1446    0.0329 C.ar      1 <0>        -0.0587
     19 C12        -0.0507    3.8357    0.0250 C.ar      1 <0>        -0.1242
     20 C13         1.1638    3.1588    0.0065 C.ar      1 <0>        -0.0665
     21 C14         1.1817    1.7808    0.0003 C.ar      1 <0>        -0.0835
     22 C15        -0.0126    1.0758    0.0080 C.ar      1 <0>        -0.1008
     23 C16         2.4619    0.9867   -0.0094 C.3       1 <0>        -0.0791
     24 C17         3.6343    1.8626   -0.4462 C.3       1 <0>        -0.1198
     25 C18         3.6264    3.1391    0.4030 C.3       1 <0>        -0.1206
     26 C19         2.4238    3.9849   -0.0102 C.3       1 <0>        -0.0822
     27 H2        -10.2155   -1.4722    3.5135 H         1 <0>         0.0893
     28 H3        -11.4293   -0.4156    4.0837 H         1 <0>         0.0923
     29 H4        -10.8856   -0.3758    2.3893 H         1 <0>         0.1004
     30 H5         -8.3961    0.6737    2.0545 H         1 <0>         0.1233
     31 H6         -7.7108   -0.4887    3.1004 H         1 <0>         0.1400
     32 H7         -2.0539   -0.3495   -1.6588 H         1 <0>         0.1993
     33 H8         -2.1795    3.6795    0.0469 H         1 <0>         0.1159
     34 H9         -0.0600    4.9156    0.0330 H         1 <0>         0.1196
     35 H10         0.0021   -0.0041    0.0020 H         1 <0>         0.1202
     36 H11         2.6541    0.6023    0.9923 H         1 <0>         0.0739
     37 H12         2.3608    0.1504   -0.7012 H         1 <0>         0.0729
     38 H13         4.5706    1.3257   -0.2934 H         1 <0>         0.0675
     39 H14         3.5270    2.1210   -1.4996 H         1 <0>         0.0656
     40 H15         3.5462    2.8777    1.4582 H         1 <0>         0.0652
     41 H16         4.5458    3.6992    0.2325 H         1 <0>         0.0677
     42 H17         2.3158    4.8190    0.6832 H         1 <0>         0.0739
     43 H18         2.5859    4.3730   -1.0158 H         1 <0>         0.0759
@<TRIPOS>BOND
     1    1    2 1
     2    1   27 1
     3    1   28 1
     4    1   29 1
     5    2    3 2
     6    2    4 1
     7    4    5 1
     8    4   30 1
     9    4   31 1
    10    5    6 1
    11    6   16 2
    12    6    7 1
    13    7    8 1
    14    7    9 am
    15    9   10 2
    16    9   11 1
    17   11   15 2
    18   11   12 1
    19   12   13 2
    20   12   17 1
    21   13   14 1
    22   13   32 1
    23   14   15 1
    24   15   16 1
    25   17   22 ar
    26   17   18 ar
    27   18   19 ar
    28   18   33 1
    29   19   20 ar
    30   19   34 1
    31   20   26 1
    32   20   21 ar
    33   21   22 ar
    34   21   23 1
    35   22   35 1
    36   23   24 1
    37   23   36 1
    38   23   37 1
    39   24   25 1
    40   24   38 1
    41   24   39 1
    42   25   26 1
    43   25   40 1
    44   25   41 1
    45   26   42 1
    46   26   43 1
@<TRIPOS>MOLECULE
ZINC18705719
   40    43     0     0     0
SMALL
USER_CHARGES
(E)-3-(4-fluorophenyl)-N-[6-(4-fluorophenyl)imidazo[2,3-b]thiazol-5-yl]prop-2-enamide
@<TRIPOS>ATOM
      1 C1          2.5270    1.3121   -0.5532 C.ar      1 <0>        -0.0674
      2 C2          3.7033    2.0298   -0.5545 C.ar      1 <0>        -0.1561
      3 C3          3.7624    3.2690   -1.1744 C.ar      1 <0>         0.1177
      4 C4          2.6412    3.7917   -1.8012 C.ar      1 <0>        -0.1564
      5 C5          1.4601    3.0821   -1.8114 C.ar      1 <0>        -0.0590
      6 C6          1.3937    1.8315   -1.1880 C.ar      1 <0>        -0.0980
      7 C7          0.1359    1.0687   -1.1946 C.2       1 <0>         0.0076
      8 C8          0.0751   -0.1371   -0.5924 C.2       1 <0>        -0.2244
      9 C9         -1.1757   -0.8957   -0.5989 C.2       1 <0>         0.5454
     10 O1         -2.1619   -0.4389   -1.1479 O.2       1 <0>        -0.5244
     11 N1         -1.2364   -2.1003    0.0026 N.am      1 <0>        -0.6355
     12 C10        -2.4568   -2.7692    0.1030 C.2       1 <0>         0.2446
     13 C11        -2.6311   -4.1172    0.1943 C.2       1 <0>         0.0552
     14 N2         -3.9637   -4.3605    0.2765 N.2       1 <0>        -0.4132
     15 C12        -4.6006   -3.2280    0.2314 C.2       1 <0>         0.1841
     16 N3         -3.7181   -2.1813    0.1220 N.pl3     1 <0>        -0.4256
     17 C13        -4.2603   -0.9140    0.0636 C.2       1 <0>         0.0496
     18 C14        -5.5782   -0.7327    0.1128 C.2       1 <0>        -0.1842
     19 S1         -6.1787   -2.4090    0.2504 S.3       1 <0>         0.1287
     20 C15        -1.5563   -5.1367    0.2053 C.ar      1 <0>        -0.0142
     21 C16        -0.4059   -4.9488   -0.5606 C.ar      1 <0>        -0.0869
     22 C17         0.5948   -5.8984   -0.5425 C.ar      1 <0>        -0.1482
     23 C18         0.4533   -7.0427    0.2258 C.ar      1 <0>         0.1044
     24 C19        -0.6901   -7.2367    0.9839 C.ar      1 <0>        -0.1487
     25 C20        -1.6939   -6.2903    0.9771 C.ar      1 <0>        -0.0567
     26 F1          1.4333   -7.9726    0.2355 F         1 <0>        -0.1366
     27 F2          4.9171    3.9702   -1.1671 F         1 <0>        -0.1333
     28 H1          2.4811    0.3492   -0.0663 H         1 <0>         0.1391
     29 H2          4.5800    1.6283   -0.0680 H         1 <0>         0.1421
     30 H3          2.6938    4.7573   -2.2822 H         1 <0>         0.1426
     31 H4          0.5875    3.4907   -2.2994 H         1 <0>         0.1412
     32 H5         -0.7376    1.4719   -1.6853 H         1 <0>         0.1411
     33 H6          0.9498   -0.5423   -0.1055 H         1 <0>         0.1371
     34 H7         -0.4317   -2.5022    0.3657 H         1 <0>         0.4279
     35 H8         -3.6072   -0.0581   -0.0227 H         1 <0>         0.1879
     36 H9         -6.1392    0.1895    0.0781 H         1 <0>         0.2173
     37 H10        -0.2966   -4.0593   -1.1633 H         1 <0>         0.1315
     38 H11         1.4878   -5.7519   -1.1320 H         1 <0>         0.1407
     39 H12        -0.7958   -8.1304    1.5809 H         1 <0>         0.1415
     40 H13        -2.5849   -6.4426    1.5681 H         1 <0>         0.1417
@<TRIPOS>BOND
     1    1    6 ar
     2    1    2 ar
     3    1   28 1
     4    2    3 ar
     5    2   29 1
     6    3    4 ar
     7    3   27 1
     8    4    5 ar
     9    4   30 1
    10    5    6 ar
    11    5   31 1
    12    6    7 1
    13    7    8 2
    14    7   32 1
    15    8    9 1
    16    8   33 1
    17    9   10 2
    18    9   11 am
    19   11   12 1
    20   11   34 1
    21   12   16 1
    22   12   13 2
    23   13   14 1
    24   13   20 1
    25   14   15 2
    26   15   19 1
    27   15   16 1
    28   16   17 1
    29   17   18 2
    30   17   35 1
    31   18   19 1
    32   18   36 1
    33   20   25 ar
    34   20   21 ar
    35   21   22 ar
    36   21   37 1
    37   22   23 ar
    38   22   38 1
    39   23   24 ar
    40   23   26 1
    41   24   25 ar
    42   24   39 1
    43   25   40 1
@<TRIPOS>MOLECULE
ZINC03958515
   38    40     0     0     0
SMALL
USER_CHARGES

@<TRIPOS>ATOM
      1 C1         -0.0187    1.5258    0.0104 C.3       1 <0>        -0.1604
      2 C2          0.0021   -0.0041    0.0020 C.3       1 <0>         0.1836
      3 H1          0.5123   -0.3556   -0.8948 H         1 <0>         0.1034
      4 C3          0.7309   -0.5033    1.2229 C.ar      1 <0>        -0.0978
      5 C4          0.0808   -0.5585    2.4416 C.ar      1 <0>        -0.1145
      6 C5          0.7494   -1.0164    3.5615 C.ar      1 <0>        -0.1140
      7 C6          2.0680   -1.4196    3.4626 C.ar      1 <0>        -0.1157
      8 C7          2.7178   -1.3652    2.2438 C.ar      1 <0>        -0.1146
      9 C8          2.0479   -0.9113    1.1230 C.ar      1 <0>        -0.1053
     10 N1         -1.3723   -0.5112    0.0124 N.am      1 <0>        -0.7059
     11 C9         -2.0508   -0.6427   -1.1446 C.2       1 <0>         0.5961
     12 O1         -1.5227   -0.3408   -2.1963 O.2       1 <0>        -0.5054
     13 C10        -3.4426   -1.1562   -1.1341 C.2       1 <0>         0.0728
     14 C11        -4.2644   -1.3492   -2.2655 C.2       1 <0>        -0.2258
     15 C12        -5.4608   -1.8313   -1.8358 C.2       1 <0>         0.1192
     16 O2         -5.4062   -1.9411   -0.4955 O.3       1 <0>        -0.0514
     17 N2         -4.1238   -1.5160   -0.0722 N.2       1 <0>        -0.2811
     18 C13        -6.6178   -2.1738   -2.6899 C.ar      1 <0>        -0.0320
     19 C14        -6.5379   -2.0156   -4.0744 C.ar      1 <0>        -0.0738
     20 C15        -7.6208   -2.3368   -4.8661 C.ar      1 <0>        -0.0901
     21 C16        -8.7855   -2.8149   -4.2900 C.ar      1 <0>        -0.0714
     22 C17        -8.8708   -2.9740   -2.9173 C.ar      1 <0>        -0.0909
     23 C18        -7.7925   -2.6621   -2.1157 C.ar      1 <0>        -0.0766
     24 Br1       -10.2659   -3.2518   -5.3824 Br        1 <0>        -0.0358
     25 H2          1.0039    1.9031    0.0027 H         1 <0>         0.0741
     26 H3         -0.5459    1.8868   -0.8726 H         1 <0>         0.0677
     27 H4         -0.5289    1.8773    0.9072 H         1 <0>         0.0619
     28 H5         -0.9493   -0.2435    2.5188 H         1 <0>         0.1201
     29 H6          0.2417   -1.0589    4.5138 H         1 <0>         0.1256
     30 H7          2.5905   -1.7767    4.3377 H         1 <0>         0.1247
     31 H8          3.7481   -1.6798    2.1666 H         1 <0>         0.1263
     32 H9          2.5545   -0.8723    0.1700 H         1 <0>         0.1264
     33 H10        -1.7940   -0.7522    0.8520 H         1 <0>         0.4086
     34 H11        -3.9912   -1.1489   -3.2911 H         1 <0>         0.1742
     35 H12        -5.6301   -1.6421   -4.5248 H         1 <0>         0.1442
     36 H13        -7.5601   -2.2149   -5.9374 H         1 <0>         0.1451
     37 H14        -9.7820   -3.3474   -2.4737 H         1 <0>         0.1437
     38 H15        -7.8586   -2.7912   -1.0454 H         1 <0>         0.1445
@<TRIPOS>BOND
     1    1    2 1
     2    1   25 1
     3    1   26 1
     4    1   27 1
     5    2    3 1
     6    2    4 1
     7    2   10 1
     8    4    9 ar
     9    4    5 ar
    10    5    6 ar
    11    5   28 1
    12    6    7 ar
    13    6   29 1
    14    7    8 ar
    15    7   30 1
    16    8    9 ar
    17    8   31 1
    18    9   32 1
    19   10   11 am
    20   10   33 1
    21   11   12 2
    22   11   13 1
    23   13   17 2
    24   13   14 1
    25   14   15 2
    26   14   34 1
    27   15   16 1
    28   15   18 1
    29   16   17 1
    30   18   23 ar
    31   18   19 ar
    32   19   20 ar
    33   19   35 1
    34   20   21 ar
    35   20   36 1
    36   21   22 ar
    37   21   24 1
    38   22   23 ar
    39   22   37 1
    40   23   38 1
@<TRIPOS>MOLECULE
ZINC59248538
   37    39     0     0     0
SMALL
USER_CHARGES

@<TRIPOS>ATOM
      1 C1         -0.0163    1.3476    0.0095 C.2       1 <0>        -0.1934
      2 C2          1.3123    1.7966   -0.0008 C.2       1 <0>        -0.1143
      3 C3          2.1194    0.6798   -0.0145 C.2       1 <0>         0.0294
      4 N1          1.2993   -0.4256   -0.0126 N.pl3     1 <0>        -0.3951
      5 C4          0.0021   -0.0041    0.0020 C.2       1 <0>         0.0209
      6 C5          1.7256   -1.7604   -0.0246 C.ar      1 <0>         0.1371
      7 C6          2.6680   -2.1812   -0.9534 C.ar      1 <0>        -0.1184
      8 C7          3.0868   -3.4972   -0.9627 C.ar      1 <0>        -0.0717
      9 C8          2.5682   -4.3961   -0.0476 C.ar      1 <0>        -0.0913
     10 C9          1.6289   -3.9793    0.8791 C.ar      1 <0>        -0.0701
     11 C10         1.2106   -2.6632    0.8961 C.ar      1 <0>        -0.1101
     12 Br1         3.1435   -6.1974   -0.0637 Br        1 <0>        -0.0355
     13 C11         3.5856    0.6708   -0.0286 C.2       1 <0>         0.1358
     14 N2          4.2431    1.7934   -0.0283 N.2       1 <0>        -0.2159
     15 N3          5.6440    1.7847   -0.0418 N.am      1 <0>        -0.5793
     16 C12         6.3251    2.9477   -0.0415 C.2       1 <0>         0.5807
     17 O1          5.7236    4.0047   -0.0296 O.2       1 <0>        -0.4917
     18 C13         7.8017    2.9385   -0.0557 C.ar      1 <0>        -0.1459
     19 C14         8.4950    1.7261   -0.0752 C.ar      1 <0>        -0.0574
     20 C15         9.8733    1.7235   -0.0888 C.ar      1 <0>        -0.1595
     21 C16        10.5715    2.9214   -0.0832 C.ar      1 <0>         0.1315
     22 C17         9.8884    4.1278   -0.0638 C.ar      1 <0>        -0.1583
     23 C18         8.5102    4.1423   -0.0554 C.ar      1 <0>        -0.0235
     24 F1         11.9224    2.9130   -0.0961 F         1 <0>        -0.1302
     25 H1         -0.8978    1.9713    0.0252 H         1 <0>         0.1492
     26 H2          1.6413    2.8252    0.0012 H         1 <0>         0.1531
     27 H3         -0.8673   -0.6448    0.0074 H         1 <0>         0.1720
     28 H4          3.0729   -1.4801   -1.6682 H         1 <0>         0.1397
     29 H5          3.8196   -3.8251   -1.6852 H         1 <0>         0.1440
     30 H6          1.2254   -4.6830    1.5921 H         1 <0>         0.1449
     31 H7          0.4808   -2.3374    1.6224 H         1 <0>         0.1432
     32 H8          4.1197   -0.2679   -0.0391 H         1 <0>         0.1165
     33 H9          6.1237    0.9417   -0.0512 H         1 <0>         0.3846
     34 H10         7.9521    0.7925   -0.0792 H         1 <0>         0.1342
     35 H11        10.4103    0.7866   -0.1035 H         1 <0>         0.1456
     36 H12        10.4372    5.0580   -0.0592 H         1 <0>         0.1481
     37 H13         7.9790    5.0826   -0.0449 H         1 <0>         0.1514
@<TRIPOS>BOND
     1    1    5 2
     2    1    2 1
     3    1   25 1
     4    2    3 2
     5    2   26 1
     6    3    4 1
     7    3   13 1
     8    4    5 1
     9    4    6 1
    10    5   27 1
    11    6   11 ar
    12    6    7 ar
    13    7    8 ar
    14    7   28 1
    15    8    9 ar
    16    8   29 1
    17    9   10 ar
    18    9   12 1
    19   10   11 ar
    20   10   30 1
    21   11   31 1
    22   13   14 2
    23   13   32 1
    24   14   15 1
    25   15   16 am
    26   15   33 1
    27   16   17 2
    28   16   18 1
    29   18   23 ar
    30   18   19 ar
    31   19   20 ar
    32   19   34 1
    33   20   21 ar
    34   20   35 1
    35   21   22 ar
    36   21   24 1
    37   22   23 ar
    38   22   36 1
    39   23   37 1
@<TRIPOS>MOLECULE
ZINC67190143
   40    42     0     0     0
SMALL
USER_CHARGES

@<TRIPOS>ATOM
      1 C1          0.1369    1.5028   -0.0042 C.3       1 <0>        -0.1244
      2 C2          0.1166   -0.0040   -0.0087 C.ar      1 <0>        -0.0505
      3 C3         -0.5986   -0.6797   -0.9827 C.ar      1 <0>        -0.1278
      4 C4         -0.6227   -2.0577   -0.9943 C.ar      1 <0>        -0.0670
      5 C5          0.0797   -2.7745   -0.0172 C.ar      1 <0>        -0.1246
      6 C6          0.8011   -2.0827    0.9641 C.ar      1 <0>        -0.0816
      7 C7          0.8180   -0.7046    0.9578 C.ar      1 <0>        -0.1241
      8 C8          0.0595   -4.2416   -0.0213 C.2       1 <0>         0.1012
      9 C9          0.1780   -4.9297    1.1530 C.2       1 <0>        -0.1377
     10 C10         0.1753   -4.2246    2.3994 C.1       1 <0>         0.2385
     11 N1          0.1733   -3.6652    3.3881 N.1       1 <0>        -0.3899
     12 C11         0.3082   -6.3957    1.1371 C.2       1 <0>         0.5822
     13 O1          0.3104   -6.9947    0.0784 O.2       1 <0>        -0.4874
     14 N2          0.4250   -7.0745    2.2956 N.am      1 <0>        -0.6049
     15 C12         0.5479   -8.4572    2.2805 C.2       1 <0>         0.3155
     16 N3          0.6665   -9.2964    3.2928 N.2       1 <0>        -0.5293
     17 C13         0.7746  -10.6017    3.0949 C.2       1 <0>         0.1156
     18 C14         0.7631  -11.0897    1.8180 C.2       1 <0>        -0.2342
     19 S1          0.5796   -9.5748    0.8859 S.3       1 <0>         0.1344
     20 C15         0.9073  -11.5251    4.2480 C.ar      1 <0>        -0.0194
     21 C16         1.0270  -12.8974    4.0348 C.ar      1 <0>        -0.0915
     22 C17         1.1502  -13.7522    5.1109 C.ar      1 <0>        -0.1097
     23 C18         1.1551  -13.2491    6.4007 C.ar      1 <0>        -0.0302
     24 C19         1.0365  -11.8869    6.6178 C.ar      1 <0>        -0.1124
     25 C20         0.9185  -11.0231    5.5483 C.ar      1 <0>        -0.0745
     26 Cl1         1.3098  -14.3299    7.7503 Cl        1 <0>        -0.0678
     27 H1          0.9703    1.8568   -0.6111 H         1 <0>         0.0786
     28 H2         -0.7989    1.8800   -0.4166 H         1 <0>         0.0725
     29 H3          0.2541    1.8616    1.0184 H         1 <0>         0.0714
     30 H4         -1.1396   -0.1253   -1.7353 H         1 <0>         0.1330
     31 H5         -1.1818   -2.5832   -1.7544 H         1 <0>         0.1373
     32 H6          1.3454   -2.6276    1.7212 H         1 <0>         0.1277
     33 H7          1.3768   -0.1695    1.7114 H         1 <0>         0.1300
     34 H8         -0.0489   -4.7776   -0.9526 H         1 <0>         0.1705
     35 H9          0.4233   -6.5969    3.1398 H         1 <0>         0.4271
     36 H10         0.8393  -12.1089    1.4688 H         1 <0>         0.2019
     37 H11         1.0230  -13.2909    3.0290 H         1 <0>         0.1359
     38 H12         1.2426  -14.8157    4.9468 H         1 <0>         0.1381
     39 H13         1.0408  -11.4994    7.6259 H         1 <0>         0.1363
     40 H14         0.8309   -9.9602    5.7185 H         1 <0>         0.1412
@<TRIPOS>BOND
     1    1    2 1
     2    1   27 1
     3    1   28 1
     4    1   29 1
     5    2    7 ar
     6    2    3 ar
     7    3    4 ar
     8    3   30 1
     9    4    5 ar
    10    4   31 1
    11    5    6 ar
    12    5    8 1
    13    6    7 ar
    14    6   32 1
    15    7   33 1
    16    8    9 2
    17    8   34 1
    18    9   10 1
    19    9   12 1
    20   10   11 3
    21   12   13 2
    22   12   14 am
    23   14   15 1
    24   14   35 1
    25   15   19 1
    26   15   16 2
    27   16   17 1
    28   17   18 2
    29   17   20 1
    30   18   19 1
    31   18   36 1
    32   20   25 ar
    33   20   21 ar
    34   21   22 ar
    35   21   37 1
    36   22   23 ar
    37   22   38 1
    38   23   24 ar
    39   23   26 1
    40   24   25 ar
    41   24   39 1
    42   25   40 1
@<TRIPOS>MOLECULE
ZINC06332898
   37    40     0     0     0
SMALL
USER_CHARGES
3-(4-chlorophenyl)-5-(2,5-dioxabicyclo[4.4.0]deca-7,9,11-trien-8-ylmethylene)-2-thioxo-thiazolidin-4-one
@<TRIPOS>ATOM
      1 C1          3.3892    5.1049   -2.3787 C.ar      1 <0>        -0.0717
      2 C2          3.6453    6.4196   -2.7155 C.ar      1 <0>        -0.0978
      3 C3          3.3724    7.4321   -1.8125 C.ar      1 <0>        -0.0136
      4 C4          2.8362    7.1308   -0.5729 C.ar      1 <0>        -0.0975
      5 C5          2.5722    5.8182   -0.2340 C.ar      1 <0>        -0.0714
      6 C6          2.8455    4.8006   -1.1380 C.ar      1 <0>         0.0990
      7 N1          2.5784    3.4677   -0.7964 N.am      1 <0>        -0.4809
      8 C7          1.3987    2.9487   -1.0926 C.2       1 <0>         0.5344
      9 O1          0.5373    3.5988   -1.6555 O.2       1 <0>        -0.4320
     10 C8          1.1775    1.5423   -0.7016 C.2       1 <0>        -0.2533
     11 C9          0.0811    0.7596   -0.8696 C.2       1 <0>         0.1104
     12 C10        -1.1699    1.3455   -1.3673 C.ar      1 <0>        -0.1109
     13 C11        -1.9893    0.6174   -2.2386 C.ar      1 <0>        -0.0688
     14 C12        -3.1608    1.1713   -2.7038 C.ar      1 <0>        -0.1274
     15 C13        -3.5353    2.4519   -2.3128 C.ar      1 <0>         0.0832
     16 C14        -2.7267    3.1817   -1.4444 C.ar      1 <0>         0.0412
     17 C15        -1.5510    2.6318   -0.9683 C.ar      1 <0>        -0.0344
     18 O2         -3.0827    4.4349   -1.0492 O.3       1 <0>        -0.3039
     19 C16        -4.0783    5.0987   -1.8353 C.3       1 <0>         0.0201
     20 C17        -5.2243    4.1107   -2.0921 C.3       1 <0>         0.0190
     21 O3         -4.6936    2.9803   -2.7921 O.3       1 <0>        -0.3029
     22 S1          2.7531    1.1511    0.0467 S.3       1 <0>         0.0820
     23 C18         3.5327    2.7415   -0.1796 C.2       1 <0>         0.2723
     24 S2          5.1101    3.2268    0.2758 S.2       1 <0>        -0.3066
     25 Cl1         3.7027    9.0830   -2.2358 Cl        1 <0>        -0.0537
     26 H1          3.6072    4.3146   -3.0818 H         1 <0>         0.1363
     27 H2          4.0631    6.6573   -3.6826 H         1 <0>         0.1465
     28 H3          2.6238    7.9228    0.1300 H         1 <0>         0.1467
     29 H4          2.1537    5.5836    0.7336 H         1 <0>         0.1367
     30 H5          0.1303   -0.2948   -0.6414 H         1 <0>         0.1654
     31 H6         -1.7025   -0.3775   -2.5457 H         1 <0>         0.1424
     32 H7         -3.7917    0.6085   -3.3758 H         1 <0>         0.1428
     33 H8         -0.9253    3.1957   -0.2924 H         1 <0>         0.1353
     34 H9         -4.4555    5.9666   -1.2945 H         1 <0>         0.1253
     35 H10        -3.6461    5.4161   -2.7843 H         1 <0>         0.0794
     36 H11        -5.6510    3.7879   -1.1425 H         1 <0>         0.0817
     37 H12        -5.9938    4.5897   -2.6975 H         1 <0>         0.1264
@<TRIPOS>BOND
     1    1    6 ar
     2    1    2 ar
     3    1   26 1
     4    2    3 ar
     5    2   27 1
     6    3    4 ar
     7    3   25 1
     8    4    5 ar
     9    4   28 1
    10    5    6 ar
    11    5   29 1
    12    6    7 1
    13    7   23 1
    14    7    8 am
    15    8    9 2
    16    8   10 1
    17   10   11 2
    18   10   22 1
    19   11   12 1
    20   11   30 1
    21   12   17 ar
    22   12   13 ar
    23   13   14 ar
    24   13   31 1
    25   14   15 ar
    26   14   32 1
    27   15   21 1
    28   15   16 ar
    29   16   17 ar
    30   16   18 1
    31   17   33 1
    32   18   19 1
    33   19   20 1
    34   19   34 1
    35   19   35 1
    36   20   21 1
    37   20   36 1
    38   20   37 1
    39   22   23 1
    40   23   24 2
@<TRIPOS>MOLECULE
ZINC02417375
   38    41     0     0     0
SMALL
USER_CHARGES

@<TRIPOS>ATOM
      1 C1         -0.0184    1.5028    0.0103 C.3       1 <0>        -0.1111
      2 C2          0.0021   -0.0041    0.0020 C.ar      1 <0>         0.1392
      3 C3          0.0054   -0.6713   -1.2062 C.ar      1 <0>        -0.1213
      4 C4          0.0242   -2.0636   -1.2147 C.ar      1 <0>         0.1337
      5 C5          0.0392   -2.7293    0.0213 C.ar      1 <0>        -0.1307
      6 C6          0.0571   -4.1658   -0.3003 C.ar      1 <0>        -0.0685
      7 C7          0.0761   -5.3288    0.4640 C.ar      1 <0>        -0.1061
      8 C8          0.0894   -6.5614   -0.1633 C.ar      1 <0>         0.1248
      9 C9          0.0838   -6.6359   -1.5516 C.ar      1 <0>        -0.1603
     10 C10         0.0654   -5.4878   -2.3145 C.ar      1 <0>        -0.0627
     11 C11         0.0514   -4.2413   -1.7009 C.ar      1 <0>         0.0490
     12 O1          0.0320   -2.9836   -2.1989 O.3       1 <0>        -0.1788
     13 O2          0.1085   -7.7011    0.5783 O.3       1 <0>        -0.3084
     14 C12         0.1214   -8.9392   -0.1352 C.3       1 <0>         0.0230
     15 C13         0.0343   -1.9820    1.2035 C.ar      1 <0>         0.2094
     16 N1          0.0218   -0.6548    1.1507 N.ar      1 <0>        -0.1287
     17 O3          0.0237    0.0824    2.3596 O.3       1 <0>        -0.5279
     18 C14         0.0499   -2.6708    2.5152 C.ar      1 <0>        -0.0509
     19 C15        -0.7827   -3.7666    2.7400 C.ar      1 <0>        -0.0855
     20 C16        -0.7637   -4.4046    3.9632 C.ar      1 <0>        -0.0984
     21 C17         0.0799   -3.9588    4.9662 C.ar      1 <0>        -0.0678
     22 C18         0.9082   -2.8713    4.7486 C.ar      1 <0>        -0.0971
     23 C19         0.9015   -2.2293    3.5273 C.ar      1 <0>        -0.0402
     24 Br1         0.1003   -4.8384    6.6401 Br        1 <0>        -0.0413
     25 H1          1.0042    1.8801    0.0026 H         1 <0>         0.0948
     26 H2         -0.5455    1.8639   -0.8728 H         1 <0>         0.0908
     27 H3         -0.5286    1.8543    0.9071 H         1 <0>         0.1027
     28 H4         -0.0069   -0.1197   -2.1347 H         1 <0>         0.1780
     29 H5          0.0809   -5.2690    1.5423 H         1 <0>         0.1515
     30 H6          0.0942   -7.6010   -2.0362 H         1 <0>         0.1502
     31 H7          0.0619   -5.5575   -3.3923 H         1 <0>         0.1470
     32 H8          0.1362   -9.7669    0.5738 H         1 <0>         0.1061
     33 H9         -0.7709   -9.0094   -0.7572 H         1 <0>         0.0596
     34 H10         1.0089   -8.9856   -0.7663 H         1 <0>         0.0594
     35 H11        -1.4414   -4.1150    1.9583 H         1 <0>         0.1378
     36 H12        -1.4084   -5.2531    4.1386 H         1 <0>         0.1422
     37 H13         1.5641   -2.5274    5.5347 H         1 <0>         0.1410
     38 H14         1.5514   -1.3837    3.3571 H         1 <0>         0.1453
@<TRIPOS>BOND
     1    1    2 1
     2    1   25 1
     3    1   26 1
     4    1   27 1
     5    2   16 ar
     6    2    3 ar
     7    3    4 ar
     8    3   28 1
     9    4   12 1
    10    4    5 ar
    11    5    6 1
    12    5   15 ar
    13    6   11 ar
    14    6    7 ar
    15    7    8 ar
    16    7   29 1
    17    8    9 ar
    18    8   13 1
    19    9   10 ar
    20    9   30 1
    21   10   11 ar
    22   10   31 1
    23   11   12 1
    24   13   14 1
    25   14   32 1
    26   14   33 1
    27   14   34 1
    28   15   16 ar
    29   15   18 1
    30   16   17 1
    31   18   23 ar
    32   18   19 ar
    33   19   20 ar
    34   19   35 1
    35   20   21 ar
    36   20   36 1
    37   21   22 ar
    38   21   24 1
    39   22   23 ar
    40   22   37 1
    41   23   38 1
@<TRIPOS>MOLECULE
ZINC39526568
   49    50     0     0     0
SMALL
USER_CHARGES

@<TRIPOS>ATOM
      1 C1          0.6825    1.4934    0.2318 C.3       1 <0>        -0.1534
      2 C2          0.7404   -0.0355    0.2243 C.3       1 <0>         0.0417
      3 O1          0.9992   -0.4959   -1.1035 O.3       1 <0>        -0.2337
      4 N1          1.0751   -1.9519   -1.2243 N.3       1 <0>        -0.3397
      5 C3          2.4673   -2.3962   -1.3680 C.3       1 <0>         0.1003
      6 H1          2.8686   -2.0327   -2.3140 H         1 <0>         0.0935
      7 C4          2.5214   -3.9254   -1.3451 C.3       1 <0>        -0.1107
      8 C5          1.6688   -4.4781   -2.4907 C.3       1 <0>        -0.1309
      9 C6          0.2348   -3.9620   -2.3441 C.3       1 <0>        -0.1098
     10 C7          0.2463   -2.4315   -2.3376 C.3       1 <0>         0.1227
     11 C8         -1.1836   -1.9133   -2.1700 C.3       1 <0>        -0.1001
     12 C9         -1.1752   -0.3834   -2.1668 C.3       1 <0>        -0.1500
     13 C10        -0.6003    0.1262   -3.4900 C.3       1 <0>        -0.0971
     14 C11         0.8299   -0.3911   -3.6569 C.3       1 <0>        -0.5672
     15 H2          1.4445   -0.0328   -2.8311 H         1 <0>         0.1584
     16 C12         0.8219   -1.9211   -3.6601 C.3       1 <0>        -0.1327
     17 S1          1.5124    0.2132   -5.2252 S.o2      1 <0>         2.4006
     18 O2          2.8715   -0.1929   -5.3102 O.2       1 <0>        -0.9385
     19 O3          0.6183   -0.1420   -6.2710 O.2       1 <0>        -0.9382
     20 C13         1.4638    2.0144   -5.0157 C.3       1 <0>        -0.5724
     21 C14         2.3477    2.4143   -3.8327 C.3       1 <0>        -0.1455
     22 C15         1.9787    2.6899   -6.2883 C.3       1 <0>        -0.1436
     23 Br1         3.5396   -1.6809    0.1164 Br        1 <0>        -0.1261
     24 H3          1.6356    1.8948   -0.1127 H         1 <0>         0.0630
     25 H4         -0.1145    1.8300   -0.4312 H         1 <0>         0.0626
     26 H5          0.4851    1.8446    1.2446 H         1 <0>         0.0758
     27 H6          1.5374   -0.3721    0.8874 H         1 <0>         0.0683
     28 H7         -0.2126   -0.4369    0.5688 H         1 <0>         0.0570
     29 H8          3.5531   -4.2550   -1.4675 H         1 <0>         0.0894
     30 H9          2.1328   -4.2892   -0.3939 H         1 <0>         0.0884
     31 H10         2.0799   -4.1458   -3.4439 H         1 <0>         0.0703
     32 H11         1.6696   -5.5675   -2.4526 H         1 <0>         0.0833
     33 H12        -0.3672   -4.3178   -3.1802 H         1 <0>         0.0851
     34 H13        -0.1893   -4.3266   -1.4085 H         1 <0>         0.0835
     35 H14        -1.7989   -2.2715   -2.9953 H         1 <0>         0.0725
     36 H15        -1.5933   -2.2762   -1.2274 H         1 <0>         0.0742
     37 H16        -2.1939   -0.0147   -2.0473 H         1 <0>         0.0587
     38 H17        -0.5599   -0.0252   -1.3415 H         1 <0>         0.1254
     39 H18        -1.2152   -0.2326   -4.3155 H         1 <0>         0.0770
     40 H19        -0.5947    1.2161   -3.4880 H         1 <0>         0.0711
     41 H20         1.8409   -2.2894   -3.7790 H         1 <0>         0.0818
     42 H21         0.2075   -2.2794   -4.4860 H         1 <0>         0.0910
     43 H22         0.4380    2.3306   -4.8261 H         1 <0>         0.1367
     44 H23         3.3735    2.0981   -4.0223 H         1 <0>         0.0764
     45 H24         2.3185    3.4966   -3.7068 H         1 <0>         0.0805
     46 H25         1.9809    1.9331   -2.9260 H         1 <0>         0.0715
     47 H26         1.9317    3.7724   -6.1696 H         1 <0>         0.0835
     48 H27         3.0108    2.3886   -6.4675 H         1 <0>         0.0726
     49 H28         1.3605    2.3900   -7.1345 H         1 <0>         0.0728
@<TRIPOS>BOND
     1    1    2 1
     2    1   24 1
     3    1   25 1
     4    1   26 1
     5    2    3 1
     6    2   27 1
     7    2   28 1
     8    3    4 1
     9    4   10 1
    10    4    5 1
    11    5    6 1
    12    5    7 1
    13    5   23 1
    14    7    8 1
    15    7   29 1
    16    7   30 1
    17    8    9 1
    18    8   31 1
    19    8   32 1
    20    9   10 1
    21    9   33 1
    22    9   34 1
    23   10   16 1
    24   10   11 1
    25   11   12 1
    26   11   35 1
    27   11   36 1
    28   12   13 1
    29   12   37 1
    30   12   38 1
    31   13   14 1
    32   13   39 1
    33   13   40 1
    34   14   15 1
    35   14   16 1
    36   14   17 1
    37   16   41 1
    38   16   42 1
    39   17   18 2
    40   17   19 2
    41   17   20 1
    42   20   21 1
    43   20   22 1
    44   20   43 1
    45   21   44 1
    46   21   45 1
    47   21   46 1
    48   22   47 1
    49   22   48 1
    50   22   49 1
@<TRIPOS>MOLECULE
ZINC53355428
   53    56     0     0     0
SMALL
USER_CHARGES

@<TRIPOS>ATOM
      1 C1         -0.0184    1.5028    0.0103 C.3       1 <0>        -0.1750
      2 C2          0.0021   -0.0041    0.0020 C.2       1 <0>         0.5130
      3 O1          1.0605   -0.5961   -0.0113 O.2       1 <0>        -0.5351
      4 N1         -1.1558   -0.6938    0.0094 N.am      1 <0>        -0.6039
      5 C3         -1.1730   -2.1148    0.0079 C.3       1 <0>         0.1148
      6 C4         -1.0399   -2.7665   -1.4072 C.3       1 <0>        -0.1484
      7 C5         -1.8522   -1.8785   -2.4056 C.3       1 <0>         0.1153
      8 N2         -3.0641   -1.3540   -1.8806 N.am      1 <0>        -0.6020
      9 C6         -3.0209    0.0253   -1.3307 C.3       1 <0>         0.0843
     10 C7         -2.4705   -0.0021    0.0256 C.3       1 <0>         0.0857
     11 C8         -4.2023   -2.0758   -1.8818 C.2       1 <0>         0.5172
     12 O2         -4.2072   -3.1995   -2.3380 O.2       1 <0>        -0.5165
     13 C9         -5.4689   -1.4866   -1.3164 C.3       1 <0>        -0.1319
     14 C10        -6.6042   -2.5048   -1.4391 C.3       1 <0>        -0.0325
     15 C11        -6.2396   -3.7713   -0.6619 C.3       1 <0>        -0.1155
     16 C12        -7.3749   -4.7896   -0.7846 C.3       1 <0>        -0.0815
     17 H1         -7.1152   -5.6918   -0.2309 H         1 <0>         0.0761
     18 C13        -8.6608   -4.1913   -0.2105 C.3       1 <0>        -0.1125
     19 C14        -9.0254   -2.9249   -0.9877 C.3       1 <0>        -0.0820
     20 H2         -9.9415   -2.4987   -0.5788 H         1 <0>         0.0783
     21 C15        -7.8901   -1.9066   -0.8650 C.3       1 <0>        -0.1060
     22 C16        -9.2394   -3.2749   -2.4617 C.3       1 <0>        -0.1045
     23 C17        -7.9536   -3.8731   -3.0357 C.3       1 <0>         0.0001
     24 C18        -7.5890   -5.1396   -2.2585 C.3       1 <0>        -0.1010
     25 C19        -6.8182   -2.8549   -2.9131 C.3       1 <0>        -0.1077
     26 Br1        -8.2286   -4.3229   -4.9297 Br        1 <0>        -0.1679
     27 H3          1.0042    1.8801    0.0026 H         1 <0>         0.0937
     28 H4         -0.5455    1.8639   -0.8728 H         1 <0>         0.0874
     29 H5         -0.5286    1.8543    0.9071 H         1 <0>         0.0894
     30 H6         -0.3518   -2.4704    0.6302 H         1 <0>         0.0713
     31 H7         -2.1093   -2.4489    0.4550 H         1 <0>         0.0685
     32 H8          0.0082   -2.7956   -1.7051 H         1 <0>         0.0784
     33 H9         -1.4500   -3.7762   -1.3907 H         1 <0>         0.0795
     34 H10        -1.2223   -1.0455   -2.7176 H         1 <0>         0.0677
     35 H11        -2.0879   -2.4765   -3.2860 H         1 <0>         0.0734
     36 H12        -2.3926    0.6496   -1.9659 H         1 <0>         0.0849
     37 H13        -4.0300    0.4366   -1.3029 H         1 <0>         0.0988
     38 H14        -3.1537   -0.5371    0.6853 H         1 <0>         0.0840
     39 H15        -2.3397    1.0171    0.3890 H         1 <0>         0.1005
     40 H16        -5.3164   -1.2372   -0.2663 H         1 <0>         0.0949
     41 H17        -5.7286   -0.5843   -1.8701 H         1 <0>         0.0952
     42 H18        -5.3235   -4.1975   -1.0709 H         1 <0>         0.0936
     43 H19        -6.0871   -3.5219    0.3882 H         1 <0>         0.0571
     44 H20        -9.4696   -4.9168   -0.2979 H         1 <0>         0.0640
     45 H21        -8.5083   -3.9419    0.8395 H         1 <0>         0.0656
     46 H22        -7.7376   -1.6572    0.1850 H         1 <0>         0.0673
     47 H23        -8.1498   -1.0043   -1.4187 H         1 <0>         0.0652
     48 H24       -10.0483   -4.0003   -2.5491 H         1 <0>         0.0729
     49 H25        -9.4992   -2.3726   -3.0154 H         1 <0>         0.0724
     50 H26        -6.6729   -5.5658   -2.6675 H         1 <0>         0.0761
     51 H27        -8.3978   -5.8650   -2.3460 H         1 <0>         0.0702
     52 H28        -7.0780   -1.9526   -3.4667 H         1 <0>         0.0637
     53 H29        -5.9022   -3.2811   -3.3220 H         1 <0>         0.1032
@<TRIPOS>BOND
     1    1    2 1
     2    1   27 1
     3    1   28 1
     4    1   29 1
     5    2    3 2
     6    2    4 am
     7    4   10 1
     8    4    5 1
     9    5    6 1
    10    5   30 1
    11    5   31 1
    12    6    7 1
    13    6   32 1
    14    6   33 1
    15    7    8 1
    16    7   34 1
    17    7   35 1
    18    8    9 1
    19    8   11 am
    20    9   10 1
    21    9   36 1
    22    9   37 1
    23   10   38 1
    24   10   39 1
    25   11   12 2
    26   11   13 1
    27   13   14 1
    28   13   40 1
    29   13   41 1
    30   14   21 1
    31   14   25 1
    32   14   15 1
    33   15   16 1
    34   15   42 1
    35   15   43 1
    36   16   17 1
    37   16   24 1
    38   16   18 1
    39   18   19 1
    40   18   44 1
    41   18   45 1
    42   19   20 1
    43   19   21 1
    44   19   22 1
    45   21   46 1
    46   21   47 1
    47   22   23 1
    48   22   48 1
    49   22   49 1
    50   23   24 1
    51   23   25 1
    52   23   26 1
    53   24   50 1
    54   24   51 1
    55   25   52 1
    56   25   53 1
@<TRIPOS>MOLECULE
ZINC65544771
   44    46     0     0     0
SMALL
USER_CHARGES

@<TRIPOS>ATOM
      1 C1         -0.0184    1.5028    0.0103 C.3       1 <0>        -0.0907
      2 C2          0.0021   -0.0041    0.0020 C.2       1 <0>         0.1125
      3 C3          0.0080   -0.8237   -1.1409 C.2       1 <0>        -0.2534
      4 C4          0.0273   -2.1079   -0.7353 C.2       1 <0>         0.0953
      5 O1          0.0335   -2.1190    0.6064 O.3       1 <0>        -0.0817
      6 N1          0.0230   -0.7748    1.0524 N.2       1 <0>        -0.3214
      7 C5          0.0393   -3.3197   -1.6311 C.3       1 <0>        -0.0859
      8 C6         -0.0053   -0.3478   -2.5707 C.3       1 <0>         0.1293
      9 N2          1.3752   -0.1740   -3.0418 N.3       1 <0>        -0.5349
     10 C7          2.0446    0.9170   -2.3199 C.3       1 <0>         0.0560
     11 C8          3.5004    1.0134   -2.7823 C.3       1 <0>         0.0582
     12 N3          3.5364    1.2457   -4.2330 N.3       1 <0>        -0.5333
     13 C9          2.8670    0.1547   -4.9550 C.3       1 <0>         0.0553
     14 C10         1.4112    0.0583   -4.4925 C.3       1 <0>         0.0579
     15 C11         4.9169    1.4195   -4.7041 C.3       1 <0>         0.0961
     16 C12         4.9035    1.8954   -6.1340 C.ar      1 <0>        -0.1107
     17 C13         5.1133    0.9973   -7.1634 C.ar      1 <0>        -0.0569
     18 C14         5.1010    1.4339   -8.4757 C.ar      1 <0>        -0.1053
     19 C15         4.8788    2.7697   -8.7589 C.ar      1 <0>        -0.0596
     20 C16         4.6690    3.6686   -7.7309 C.ar      1 <0>        -0.1504
     21 C17         4.6755    3.2312   -6.4170 C.ar      1 <0>         0.1403
     22 F1          4.4648    4.1086   -5.4115 F         1 <0>        -0.1250
     23 Br1         5.3887    0.2044   -9.8834 Br        1 <0>        -0.0393
     24 H1          1.0042    1.8801    0.0026 H         1 <0>         0.0905
     25 H2         -0.5455    1.8639   -0.8728 H         1 <0>         0.0854
     26 H3         -0.5286    1.8543    0.9071 H         1 <0>         0.0837
     27 H4          1.0697   -3.5980   -1.8521 H         1 <0>         0.0970
     28 H5         -0.4610   -4.1477   -1.1290 H         1 <0>         0.0845
     29 H6         -0.4822   -3.0898   -2.5603 H         1 <0>         0.0937
     30 H7         -0.5120   -1.0846   -3.1941 H         1 <0>         0.0865
     31 H8         -0.5327    0.6041   -2.6319 H         1 <0>         0.0482
     32 H9          1.5341    1.8574   -2.5274 H         1 <0>         0.0458
     33 H10         2.0158    0.7158   -1.2490 H         1 <0>         0.0805
     34 H11         3.9909    1.8405   -2.2693 H         1 <0>         0.0816
     35 H12         4.0181    0.0827   -2.5501 H         1 <0>         0.0447
     36 H13         2.8958    0.3558   -6.0258 H         1 <0>         0.0806
     37 H14         3.3775   -0.7857   -4.7474 H         1 <0>         0.0452
     38 H15         0.9207   -0.7689   -5.0055 H         1 <0>         0.0818
     39 H16         0.8935    0.9890   -4.7247 H         1 <0>         0.0445
     40 H17         5.4235    2.1563   -4.0807 H         1 <0>         0.0909
     41 H18         5.4443    0.4676   -4.6430 H         1 <0>         0.0535
     42 H19         5.2872   -0.0456   -6.9429 H         1 <0>         0.1399
     43 H20         4.8697    3.1100   -9.7839 H         1 <0>         0.1434
     44 H21         4.4962    4.7115   -7.9521 H         1 <0>         0.1460
@<TRIPOS>BOND
     1    1    2 1
     2    1   24 1
     3    1   25 1
     4    1   26 1
     5    2    6 2
     6    2    3 1
     7    3    4 2
     8    3    8 1
     9    4    5 1
    10    4    7 1
    11    5    6 1
    12    7   27 1
    13    7   28 1
    14    7   29 1
    15    8    9 1
    16    8   30 1
    17    8   31 1
    18    9   14 1
    19    9   10 1
    20   10   11 1
    21   10   32 1
    22   10   33 1
    23   11   12 1
    24   11   34 1
    25   11   35 1
    26   12   13 1
    27   12   15 1
    28   13   14 1
    29   13   36 1
    30   13   37 1
    31   14   38 1
    32   14   39 1
    33   15   16 1
    34   15   40 1
    35   15   41 1
    36   16   21 ar
    37   16   17 ar
    38   17   18 ar
    39   17   42 1
    40   18   19 ar
    41   18   23 1
    42   19   20 ar
    43   19   43 1
    44   20   21 ar
    45   20   44 1
    46   21   22 1
@<TRIPOS>MOLECULE
ZINC13005211
   35    37     0     0     0
SMALL
USER_CHARGES
(2Z,5E)-5-[(4-bromo-2-fluoro-phenyl)methylene]-2-[2-(2-furyl)-2-oxo-ethylidene]-3-methyl-thiazolidin-4-one
@<TRIPOS>ATOM
      1 C1          6.1877   -2.6543   -0.3304 C.3       1 <0>         0.0590
      2 N1          4.8027   -3.1303   -0.2937 N.am      1 <0>        -0.5496
      3 C2          4.5430   -4.4793   -0.3879 C.2       1 <0>         0.1946
      4 C3          5.4399   -5.5173   -0.5199 C.2       1 <0>        -0.2545
      5 C4          4.9759   -6.8401   -0.6009 C.2       1 <0>         0.4735
      6 O1          3.7776   -7.0708   -0.5542 O.2       1 <0>        -0.4478
      7 C5          5.9331   -7.9480   -0.7418 C.2       1 <0>        -0.0914
      8 C6          5.6188   -9.2726   -0.8256 C.2       1 <0>        -0.1219
      9 C7          6.8327   -9.9688   -0.9532 C.2       1 <0>        -0.2273
     10 C8          7.8215   -9.0493   -0.9326 C.2       1 <0>        -0.0023
     11 O2          7.2750   -7.8320   -0.8050 O.3       1 <0>        -0.1599
     12 S1          2.7620   -4.5570   -0.2899 S.3       1 <0>         0.1062
     13 C9          2.4435   -2.8050   -0.1393 C.2       1 <0>        -0.2405
     14 C10         1.2592   -2.1515   -0.0220 C.2       1 <0>         0.0621
     15 C11         1.2220   -0.6843   -0.0721 C.ar      1 <0>        -0.1071
     16 C12         2.0059    0.0084   -1.0026 C.ar      1 <0>        -0.0154
     17 C13         1.9653    1.3848   -1.0438 C.ar      1 <0>        -0.1060
     18 C14         1.1515    2.0856   -0.1677 C.ar      1 <0>        -0.0454
     19 C15         0.3725    1.4106    0.7562 C.ar      1 <0>        -0.1359
     20 C16         0.4010    0.0306    0.8113 C.ar      1 <0>         0.1377
     21 F1         -0.3591   -0.6277    1.7135 F         1 <0>        -0.1236
     22 Br1         1.1046    3.9748   -0.2353 Br        1 <0>        -0.0279
     23 C17         3.8147   -2.2602   -0.1701 C.2       1 <0>         0.5411
     24 O3          4.0264   -1.0646   -0.0861 O.2       1 <0>        -0.4724
     25 H1          6.2009   -1.5678   -0.2440 H         1 <0>         0.1036
     26 H2          6.7442   -3.0914    0.4986 H         1 <0>         0.0830
     27 H3          6.6485   -2.9494   -1.2731 H         1 <0>         0.0838
     28 H4          6.4997   -5.3133   -0.5612 H         1 <0>         0.1583
     29 H5          4.6286   -9.7029   -0.8008 H         1 <0>         0.1603
     30 H6          6.9526  -11.0381   -1.0455 H         1 <0>         0.1574
     31 H7          8.8782   -9.2600   -1.0062 H         1 <0>         0.2116
     32 H8          0.3445   -2.7107    0.1082 H         1 <0>         0.1615
     33 H9          2.6407   -0.5351   -1.6868 H         1 <0>         0.1400
     34 H10         2.5697    1.9197   -1.7614 H         1 <0>         0.1441
     35 H11        -0.2623    1.9639    1.4324 H         1 <0>         0.1514
@<TRIPOS>BOND
     1    1    2 1
     2    1   25 1
     3    1   26 1
     4    1   27 1
     5    2   23 am
     6    2    3 1
     7    3    4 2
     8    3   12 1
     9    4    5 1
    10    4   28 1
    11    5    6 2
    12    5    7 1
    13    7   11 1
    14    7    8 2
    15    8    9 1
    16    8   29 1
    17    9   10 2
    18    9   30 1
    19   10   11 1
    20   10   31 1
    21   12   13 1
    22   13   14 2
    23   13   23 1
    24   14   15 1
    25   14   32 1
    26   15   20 ar
    27   15   16 ar
    28   16   17 ar
    29   16   33 1
    30   17   18 ar
    31   17   34 1
    32   18   19 ar
    33   18   22 1
    34   19   20 ar
    35   19   35 1
    36   20   21 1
    37   23   24 2
@<TRIPOS>MOLECULE
ZINC37575807
   31    32     0     0     0
SMALL
USER_CHARGES

@<TRIPOS>ATOM
      1 C1         -0.9082    1.5114    0.8827 C.3       1 <0>        -0.2127
      2 C2         -0.6019    0.0695    0.4728 C.3       1 <0>         0.1214
      3 H1         -1.4234   -0.5802    0.7746 H         1 <0>         0.0977
      4 C3         -0.4150   -0.0066   -1.0468 C.3       1 <0>         0.0508
      5 O1          0.0515   -1.3113   -1.3989 O.3       1 <0>        -0.3717
      6 C4          1.3275   -1.6452   -0.8474 C.3       1 <0>         0.0419
      7 C5          1.2298   -1.6530    0.6824 C.3       1 <0>         0.0760
      8 N1          0.6440   -0.3749    1.1173 N.pl3     1 <0>        -0.9887
      9 S1          1.3662    0.5367    2.2962 S.o2      1 <0>         2.6850
     10 O2          0.3182    1.1489    3.0353 O.2       1 <0>        -0.9409
     11 O3          2.3460   -0.2916    2.9070 O.2       1 <0>        -0.9317
     12 C6          2.2386    1.8369    1.4882 C.ar      1 <0>        -0.6473
     13 C7          1.8183    3.1458    1.6335 C.ar      1 <0>        -0.0087
     14 C8          2.5025    4.1661    1.0003 C.ar      1 <0>        -0.0948
     15 C9          3.6085    3.8779    0.2206 C.ar      1 <0>        -0.0374
     16 C10         4.0293    2.5687    0.0750 C.ar      1 <0>        -0.0817
     17 C11         3.3473    1.5483    0.7132 C.ar      1 <0>        -0.0005
     18 Br1         3.9268   -0.2414    0.5208 Br        1 <0>        -0.0036
     19 Br2         4.5442    5.2739   -0.6462 Br        1 <0>        -0.0149
     20 H2         -0.0196    2.1263    0.7401 H         1 <0>         0.0568
     21 H3         -1.7208    1.8991    0.2682 H         1 <0>         0.0887
     22 H4         -1.2025    1.5362    1.9320 H         1 <0>         0.1155
     23 H5         -1.3675    0.1852   -1.5409 H         1 <0>         0.1087
     24 H6          0.3157    0.7385   -1.3615 H         1 <0>         0.0547
     25 H7          1.6286   -2.6324   -1.1980 H         1 <0>         0.1085
     26 H8          2.0645   -0.9061   -1.1614 H         1 <0>         0.0606
     27 H9          0.5931   -2.4767    1.0054 H         1 <0>         0.0883
     28 H10         2.2246   -1.7665    1.1132 H         1 <0>         0.1072
     29 H11         0.9548    3.3712    2.2417 H         1 <0>         0.1646
     30 H12         2.1735    5.1885    1.1138 H         1 <0>         0.1539
     31 H13         4.8926    2.3433   -0.5336 H         1 <0>         0.1543
@<TRIPOS>BOND
     1    1    2 1
     2    1   20 1
     3    1   21 1
     4    1   22 1
     5    2    3 1
     6    2    8 1
     7    2    4 1
     8    4    5 1
     9    4   23 1
    10    4   24 1
    11    5    6 1
    12    6    7 1
    13    6   25 1
    14    6   26 1
    15    7    8 1
    16    7   27 1
    17    7   28 1
    18    8    9 1
    19    9   10 2
    20    9   11 2
    21    9   12 1
    22   12   17 ar
    23   12   13 ar
    24   13   14 ar
    25   13   29 1
    26   14   15 ar
    27   14   30 1
    28   15   16 ar
    29   15   19 1
    30   16   17 ar
    31   16   31 1
    32   17   18 1
@<TRIPOS>MOLECULE
ZINC41131736
   44    45     0     0     0
SMALL
USER_CHARGES

@<TRIPOS>ATOM
      1 C1         -0.5069    1.4816   -1.0183 C.3       1 <0>        -0.1480
      2 C2         -0.3147    0.0460   -0.5253 C.3       1 <0>        -0.0774
      3 C3          0.5364    0.0529    0.7460 C.3       1 <0>        -0.1501
      4 C4         -1.6793   -0.5761   -0.2222 C.3       1 <0>        -0.0649
      5 H1         -2.1409   -0.0499    0.6133 H         1 <0>         0.1046
      6 C5         -2.5637   -0.4636   -1.4371 C.ar      1 <0>        -0.0593
      7 C6         -2.1856   -1.0616   -2.6248 C.ar      1 <0>        -0.1010
      8 C7         -2.9967   -0.9591   -3.7393 C.ar      1 <0>        -0.0862
      9 C8         -4.1869   -0.2580   -3.6661 C.ar      1 <0>        -0.0886
     10 C9         -4.5648    0.3402   -2.4775 C.ar      1 <0>        -0.0878
     11 C10        -3.7556    0.2327   -1.3621 C.ar      1 <0>        -0.1057
     12 Br1        -5.2967   -0.1169   -5.1906 Br        1 <0>        -0.0466
     13 C11        -1.5005   -2.0289    0.1363 C.2       1 <0>         0.5295
     14 O1         -0.5533   -2.6488   -0.2989 O.2       1 <0>        -0.5239
     15 N1         -2.3933   -2.6393    0.9406 N.am      1 <0>        -0.6045
     16 C12        -3.4767   -1.8659    1.5524 C.3       1 <0>         0.0612
     17 C13        -2.2803   -4.0762    1.2030 C.3       1 <0>         0.1396
     18 H2         -1.4129   -4.4731    0.6756 H         1 <0>         0.1252
     19 C14        -2.1092   -4.3073    2.7136 C.3       1 <0>        -0.1426
     20 C15        -2.3066   -5.8240    2.9969 C.3       1 <0>        -0.5714
     21 S1         -3.7245   -6.1938    1.8799 S.o2      1 <0>         2.3732
     22 O2         -4.9365   -6.0446    2.6065 O.2       1 <0>        -0.9300
     23 O3         -3.4665   -7.4105    1.1926 O.2       1 <0>        -0.9308
     24 C16        -3.5580   -4.7920    0.7023 C.3       1 <0>        -0.5999
     25 H3          0.4653    1.9248   -1.2342 H         1 <0>         0.0609
     26 H4         -1.1132    1.4767   -1.9240 H         1 <0>         0.0586
     27 H5         -1.0095    2.0661   -0.2477 H         1 <0>         0.0560
     28 H6          0.1880   -0.5385   -1.2959 H         1 <0>         0.0868
     29 H7          0.0594    0.6801    1.4992 H         1 <0>         0.0542
     30 H8          0.6298   -0.9643    1.1264 H         1 <0>         0.0572
     31 H9          1.5265    0.4479    0.5183 H         1 <0>         0.0624
     32 H10        -1.2562   -1.6087   -2.6819 H         1 <0>         0.1358
     33 H11        -2.7011   -1.4260   -4.6672 H         1 <0>         0.1348
     34 H12        -5.4940    0.8876   -2.4199 H         1 <0>         0.1356
     35 H13        -4.0525    0.6962   -0.4329 H         1 <0>         0.1332
     36 H14        -4.3078   -1.7873    0.8515 H         1 <0>         0.0660
     37 H15        -3.8131   -2.3670    2.4601 H         1 <0>         0.0821
     38 H16        -3.1154   -0.8680    1.8009 H         1 <0>         0.0797
     39 H17        -1.1091   -4.0024    3.0217 H         1 <0>         0.1067
     40 H18        -2.8546   -3.7305    3.2610 H         1 <0>         0.0938
     41 H19        -1.4228   -6.3960    2.7145 H         1 <0>         0.1438
     42 H20        -2.5703   -5.9991    4.0399 H         1 <0>         0.1465
     43 H21        -4.4216   -4.1298    0.7647 H         1 <0>         0.1443
     44 H22        -3.4225   -5.1574   -0.3156 H         1 <0>         0.1470
@<TRIPOS>BOND
     1    1    2 1
     2    1   25 1
     3    1   26 1
     4    1   27 1
     5    2    3 1
     6    2    4 1
     7    2   28 1
     8    3   29 1
     9    3   30 1
    10    3   31 1
    11    4    5 1
    12    4    6 1
    13    4   13 1
    14    6   11 ar
    15    6    7 ar
    16    7    8 ar
    17    7   32 1
    18    8    9 ar
    19    8   33 1
    20    9   10 ar
    21    9   12 1
    22   10   11 ar
    23   10   34 1
    24   11   35 1
    25   13   14 2
    26   13   15 am
    27   15   16 1
    28   15   17 1
    29   16   36 1
    30   16   37 1
    31   16   38 1
    32   17   18 1
    33   17   24 1
    34   17   19 1
    35   19   20 1
    36   19   39 1
    37   19   40 1
    38   20   21 1
    39   20   41 1
    40   20   42 1
    41   21   22 2
    42   21   23 2
    43   21   24 1
    44   24   43 1
    45   24   44 1
@<TRIPOS>MOLECULE
ZINC03180400
   33    35     0     0     0
SMALL
USER_CHARGES

@<TRIPOS>ATOM
      1 C1          0.6073    1.3739    0.9391 C.2       1 <0>        -0.1079
      2 C2          0.6325    0.0470    0.9964 C.2       1 <0>        -0.2052
      3 C3          1.2818   -0.7253   -0.0791 C.2       1 <0>         0.5216
      4 O1          1.7957   -0.1457   -1.0212 O.2       1 <0>        -0.5332
      5 N1          1.3071   -2.0601   -0.0215 N.2       1 <0>        -0.6169
      6 C4          2.4672   -2.7115   -0.1369 C.2       1 <0>         0.5171
      7 C5          3.6896   -1.8940   -0.1313 C.ar      1 <0>        -0.1073
      8 C6          3.7478   -0.7461    0.6662 C.ar      1 <0>        -0.0803
      9 C7          4.8939    0.0187    0.6926 C.ar      1 <0>        -0.1003
     10 C8          5.9909   -0.3469   -0.0675 C.ar      1 <0>        -0.0989
     11 C9          5.9390   -1.4771   -0.8625 C.ar      1 <0>        -0.1007
     12 C10         4.7923   -2.2468   -0.9036 C.ar      1 <0>        -0.0994
     13 C11         4.7344   -3.4486   -1.8016 C.3       1 <0>         0.1191
     14 N2          4.5280   -4.6714   -1.0288 N.pl3     1 <0>        -0.4590
     15 C12         5.5203   -5.5967   -1.0325 C.2       1 <0>         0.1630
     16 C13         5.3917   -6.7692   -0.3681 C.2       1 <0>        -0.1884
     17 C14         4.2178   -7.0388    0.3442 C.2       1 <0>         0.0055
     18 C15         3.2229   -6.1061    0.3647 C.2       1 <0>        -0.1447
     19 C16         3.3861   -4.8891   -0.3292 C.2       1 <0>         0.4919
     20 N3          2.4047   -4.0022   -0.2375 N.2       1 <0>        -0.6192
     21 I1          6.9444   -8.1751   -0.4068 I         1 <0>         0.0122
     22 H1          1.0624    1.8871    0.1049 H         1 <0>         0.1111
     23 H2          0.1279    1.9393    1.7245 H         1 <0>         0.1145
     24 H3          0.1774   -0.4663    1.8306 H         1 <0>         0.1284
     25 H4          2.8936   -0.4588    1.2614 H         1 <0>         0.1313
     26 H5          4.9358    0.9055    1.3075 H         1 <0>         0.1338
     27 H6          6.8893    0.2518   -0.0400 H         1 <0>         0.1348
     28 H7          6.7977   -1.7591   -1.4536 H         1 <0>         0.1337
     29 H8          3.9127   -3.3285   -2.5076 H         1 <0>         0.1115
     30 H9          5.6708   -3.5280   -2.3538 H         1 <0>         0.1239
     31 H10         6.4312   -5.3937   -1.5761 H         1 <0>         0.1773
     32 H11         4.1008   -7.9743    0.8710 H         1 <0>         0.1572
     33 H12         2.3117   -6.2990    0.9114 H         1 <0>         0.1736
@<TRIPOS>BOND
     1    1    2 2
     2    1   22 1
     3    1   23 1
     4    2    3 1
     5    2   24 1
     6    3    4 2
     7    3    5 1
     8    5    6 2
     9    6   20 1
    10    6    7 1
    11    7   12 ar
    12    7    8 ar
    13    8    9 ar
    14    8   25 1
    15    9   10 ar
    16    9   26 1
    17   10   11 ar
    18   10   27 1
    19   11   12 ar
    20   11   28 1
    21   12   13 1
    22   13   14 1
    23   13   29 1
    24   13   30 1
    25   14   19 1
    26   14   15 1
    27   15   16 2
    28   15   31 1
    29   16   17 1
    30   16   21 1
    31   17   18 2
    32   17   32 1
    33   18   19 1
    34   18   33 1
    35   19   20 2
@<TRIPOS>MOLECULE
ZINC62242874
   39    41     0     0     0
SMALL
USER_CHARGES

@<TRIPOS>ATOM
      1 C1         -0.0178    1.4608    0.0101 C.3       1 <0>         0.0931
      2 N1          0.0021   -0.0041    0.0020 N.am      1 <0>        -0.5384
      3 C2         -1.1165   -0.8347    0.0027 C.ar      1 <0>         0.1139
      4 C3         -2.4816   -0.5921    0.0110 C.ar      1 <0>        -0.0906
      5 C4         -3.3683   -1.6509    0.0100 C.ar      1 <0>        -0.0573
      6 C5         -2.8994   -2.9543    0.0012 C.ar      1 <0>        -0.0728
      7 C6         -1.5406   -3.2056   -0.0067 C.ar      1 <0>        -0.0702
      8 C7         -0.6434   -2.1484   -0.0066 C.ar      1 <0>         0.1020
      9 N2          0.7475   -2.0754   -0.0127 N.am      1 <0>        -0.5390
     10 C8          1.1043   -0.7771   -0.0131 C.2       1 <0>         0.6809
     11 O1          2.2492   -0.3650   -0.0227 O.2       1 <0>        -0.5439
     12 C9          1.6659   -3.2168   -0.0231 C.3       1 <0>         0.0968
     13 Br1        -4.1236   -4.3955    0.0006 Br        1 <0>        -0.0267
     14 C10        -4.8520   -1.3872    0.0190 C.3       1 <0>        -0.0024
     15 H1         -5.3540   -2.1555    0.6070 H         1 <0>         0.1289
     16 C11        -5.3835   -1.4142   -1.4155 C.3       1 <0>        -0.1159
     17 H2         -5.1914   -2.3922   -1.8567 H         1 <0>         0.1042
     18 C12        -6.8911   -1.1431   -1.4079 C.3       1 <0>        -0.1255
     19 C13        -7.3973   -1.0954   -2.8528 C.3       1 <0>        -0.1538
     20 C14        -6.6186   -0.0258   -3.6231 C.3       1 <0>         0.0563
     21 O2         -5.2216   -0.3210   -3.5647 O.3       1 <0>        -0.3759
     22 C15        -4.6814   -0.3333   -2.2417 C.3       1 <0>         0.0587
     23 Br2        -5.1991    0.3774    0.8134 Br        1 <0>        -0.1319
     24 H3          1.0048    1.8381    0.0023 H         1 <0>         0.0982
     25 H4         -0.5450    1.8219   -0.8730 H         1 <0>         0.0783
     26 H5         -0.5280    1.8123    0.9069 H         1 <0>         0.0784
     27 H6         -2.8508    0.4228    0.0185 H         1 <0>         0.1506
     28 H7         -1.1783   -4.2230   -0.0135 H         1 <0>         0.1460
     29 H8          1.8889   -3.4943   -1.0533 H         1 <0>         0.0738
     30 H9          2.5894   -2.9447    0.4880 H         1 <0>         0.0912
     31 H10         1.2026   -4.0605    0.4883 H         1 <0>         0.0860
     32 H11        -7.4022   -1.9406   -0.8687 H         1 <0>         0.0736
     33 H12        -7.0874   -0.1879   -0.9210 H         1 <0>         0.0785
     34 H13        -7.2459   -2.0665   -3.3242 H         1 <0>         0.0730
     35 H14        -8.4589   -0.8481   -2.8589 H         1 <0>         0.0778
     36 H15        -6.9450   -0.0168   -4.6630 H         1 <0>         0.0952
     37 H16        -6.8028    0.9509   -3.1756 H         1 <0>         0.0523
     38 H17        -4.8393    0.6397   -1.7765 H         1 <0>         0.0623
     39 H18        -3.6133   -0.5462   -2.2860 H         1 <0>         0.0940
@<TRIPOS>BOND
     1    1    2 1
     2    1   24 1
     3    1   25 1
     4    1   26 1
     5    2   10 am
     6    2    3 1
     7    3    8 ar
     8    3    4 ar
     9    4    5 ar
    10    4   27 1
    11    5    6 ar
    12    5   14 1
    13    6    7 ar
    14    6   13 1
    15    7    8 ar
    16    7   28 1
    17    8    9 1
    18    9   10 am
    19    9   12 1
    20   10   11 2
    21   12   29 1
    22   12   30 1
    23   12   31 1
    24   14   15 1
    25   14   16 1
    26   14   23 1
    27   16   17 1
    28   16   22 1
    29   16   18 1
    30   18   19 1
    31   18   32 1
    32   18   33 1
    33   19   20 1
    34   19   34 1
    35   19   35 1
    36   20   21 1
    37   20   36 1
    38   20   37 1
    39   21   22 1
    40   22   38 1
    41   22   39 1
@<TRIPOS>MOLECULE
ZINC07424017
   48    51     0     0     0
SMALL
USER_CHARGES
N-(2-ethylphenyl)-7-methyl-5-oxo-9-phenyl-2,8,9-triazabicyclo[4.3.0]nona-3,7,10-triene-4-carboxamide
@<TRIPOS>ATOM
      1 C1          0.5032    8.9498    4.8127 C.3       1 <0>        -0.1507
      2 C2         -0.8382    8.6402    5.4803 C.3       1 <0>        -0.0863
      3 C3         -1.9358    9.3958    4.7765 C.ar      1 <0>        -0.1174
      4 C4         -2.3521   10.6207    5.2605 C.ar      1 <0>        -0.0977
      5 C5         -3.3585   11.3151    4.6148 C.ar      1 <0>        -0.1360
      6 C6         -3.9518   10.7859    3.4831 C.ar      1 <0>        -0.1013
      7 C7         -3.5369    9.5641    2.9913 C.ar      1 <0>        -0.1279
      8 C8         -2.5294    8.8617    3.6404 C.ar      1 <0>         0.1546
      9 N1         -2.1099    7.6219    3.1474 N.am      1 <0>        -0.6742
     10 C9         -2.9471    6.8755    2.4002 C.2       1 <0>         0.5759
     11 O1         -4.0990    7.2315    2.2382 O.2       1 <0>        -0.4823
     12 C10        -2.4680    5.6301    1.7805 C.2       1 <0>        -0.3028
     13 C11        -1.1650    5.2135    1.9545 C.2       1 <0>         0.2128
     14 N2         -0.7020    4.0836    1.4012 N.pl3     1 <0>        -0.5781
     15 H1          0.2532    3.8319    1.5569 H         1 <0>         0.4269
     16 C12        -1.4780    3.2596    0.6331 C.2       1 <0>         0.3331
     17 C13        -2.8119    3.5768    0.3792 C.2       1 <0>        -0.3014
     18 C14        -3.3699    4.8030    0.9612 C.2       1 <0>         0.4613
     19 O2         -4.5317    5.1234    0.7745 O.2       1 <0>        -0.4491
     20 C15        -3.3415    2.5561   -0.4371 C.2       1 <0>         0.1631
     21 N3         -2.3969    1.6866   -0.6666 N.2       1 <0>        -0.2667
     22 N4         -1.2244    2.0942   -0.0197 N.pl3     1 <0>        -0.3226
     23 C16         0.0006    1.4139   -0.0370 C.ar      1 <0>         0.1427
     24 C17         1.1922    2.1266   -0.0432 C.ar      1 <0>        -0.1463
     25 C18         2.3979    1.4532   -0.0661 C.ar      1 <0>        -0.0906
     26 C19         2.4191    0.0707   -0.0828 C.ar      1 <0>        -0.1158
     27 C20         1.2340   -0.6419   -0.0767 C.ar      1 <0>        -0.0924
     28 C21         0.0252    0.0257   -0.0539 C.ar      1 <0>        -0.1025
     29 C22        -4.7546    2.4832   -0.9555 C.3       1 <0>        -0.0817
     30 H2          1.2971    8.4033    5.3218 H         1 <0>         0.0608
     31 H3          0.4668    8.6469    3.7663 H         1 <0>         0.0500
     32 H4          0.7014   10.0199    4.8746 H         1 <0>         0.0618
     33 H5         -0.8018    8.9431    6.5267 H         1 <0>         0.0785
     34 H6         -1.0364    7.5701    5.4184 H         1 <0>         0.0667
     35 H7         -1.8909   11.0367    6.1440 H         1 <0>         0.1244
     36 H8         -3.6817   12.2729    4.9949 H         1 <0>         0.1225
     37 H9         -4.7376   11.3307    2.9811 H         1 <0>         0.1254
     38 H10        -3.9975    9.1535    2.1050 H         1 <0>         0.1469
     39 H11        -1.2163    7.2993    3.3433 H         1 <0>         0.4010
     40 H12        -0.4981    5.8150    2.5545 H         1 <0>         0.1763
     41 H13         1.1763    3.2064   -0.0305 H         1 <0>         0.1235
     42 H14         3.3250    2.0071   -0.0713 H         1 <0>         0.1377
     43 H15         3.3631   -0.4536   -0.1003 H         1 <0>         0.1347
     44 H16         1.2538   -1.7217   -0.0902 H         1 <0>         0.1380
     45 H17        -0.9000   -0.5315   -0.0487 H         1 <0>         0.1389
     46 H18        -5.3756    1.9406   -0.2427 H         1 <0>         0.0894
     47 H19        -5.1467    3.4920   -1.0848 H         1 <0>         0.0957
     48 H20        -4.7636    1.9642   -1.9140 H         1 <0>         0.0812
@<TRIPOS>BOND
     1    1    2 1
     2    1   30 1
     3    1   31 1
     4    1   32 1
     5    2    3 1
     6    2   33 1
     7    2   34 1
     8    3    8 ar
     9    3    4 ar
    10    4    5 ar
    11    4   35 1
    12    5    6 ar
    13    5   36 1
    14    6    7 ar
    15    6   37 1
    16    7    8 ar
    17    7   38 1
    18    8    9 1
    19    9   10 am
    20    9   39 1
    21   10   11 2
    22   10   12 1
    23   12   18 1
    24   12   13 2
    25   13   14 1
    26   13   40 1
    27   14   15 1
    28   14   16 1
    29   16   22 1
    30   16   17 2
    31   17   18 1
    32   17   20 1
    33   18   19 2
    34   20   21 2
    35   20   29 1
    36   21   22 1
    37   22   23 1
    38   23   28 ar
    39   23   24 ar
    40   24   25 ar
    41   24   41 1
    42   25   26 ar
    43   25   42 1
    44   26   27 ar
    45   26   43 1
    46   27   28 ar
    47   27   44 1
    48   28   45 1
    49   29   46 1
    50   29   47 1
    51   29   48 1
@<TRIPOS>MOLECULE
ZINC14658216
   43    46     0     0     0
SMALL
USER_CHARGES

@<TRIPOS>ATOM
      1 C1         -0.1507    1.7184   -0.0539 C.3       1 <0>        -0.1984
      2 C2          0.0296    0.2235    0.0072 C.2       1 <0>         0.4345
      3 O1          0.2136   -0.3231    1.0771 O.2       1 <0>        -0.4433
      4 C3         -0.0150   -0.5386   -1.1728 C.2       1 <0>        -0.3588
      5 C4          0.0033   -1.9340   -1.3421 C.2       1 <0>         0.2342
      6 N1         -0.0517   -2.3600   -2.5853 N.2       1 <0>        -0.5500
      7 C5         -0.1195   -1.5206   -3.6005 C.2       1 <0>         0.2591
      8 S1         -0.1187   -0.0036   -2.8732 S.3       1 <0>         0.3019
      9 N2         -0.1823   -1.8183   -4.9478 N.am      1 <0>        -0.5999
     10 C6         -0.2476   -0.8239   -5.8553 C.2       1 <0>         0.5668
     11 O2         -0.1649    0.3334   -5.4952 O.2       1 <0>        -0.4731
     12 C7         -0.4205   -1.1424   -7.2927 C.2       1 <0>        -0.0318
     13 C8         -0.3531   -2.4330   -7.7349 C.2       1 <0>        -0.1428
     14 C9         -0.5281   -2.7151   -9.1576 C.2       1 <0>         0.5357
     15 O3         -0.4682   -3.8659   -9.5529 O.2       1 <0>        -0.5153
     16 N3         -0.7546   -1.7240  -10.0372 N.am      1 <0>        -0.6238
     17 H1         -0.8679   -1.9387  -10.9764 H         1 <0>         0.4218
     18 C10        -0.8297   -0.4087   -9.6315 C.ar      1 <0>         0.1874
     19 C11        -0.6744   -0.0762   -8.2739 C.ar      1 <0>        -0.1109
     20 C12        -0.7570    1.2595   -7.8707 C.ar      1 <0>        -0.0590
     21 C13        -0.9931    2.2357   -8.7970 C.ar      1 <0>        -0.1468
     22 C14        -1.1524    1.9122  -10.1373 C.ar      1 <0>        -0.0560
     23 C15        -1.0652    0.6032  -10.5587 C.ar      1 <0>        -0.1648
     24 C16         0.0801   -2.8652   -0.1936 C.ar      1 <0>        -0.0418
     25 C17        -0.7372   -2.6723    0.9204 C.ar      1 <0>        -0.0524
     26 C18        -0.6609   -3.5436    1.9875 C.ar      1 <0>        -0.1254
     27 C19         0.2239   -4.6067    1.9543 C.ar      1 <0>        -0.1010
     28 C20         1.0375   -4.8031    0.8526 C.ar      1 <0>        -0.1304
     29 C21         0.9662   -3.9424   -0.2234 C.ar      1 <0>        -0.0784
     30 H2          0.8203    2.1965   -0.1831 H         1 <0>         0.0995
     31 H3         -0.7955    1.9725   -0.8952 H         1 <0>         0.0808
     32 H4         -0.6073    2.0675    0.8722 H         1 <0>         0.0941
     33 H5         -0.1793   -2.7429   -5.2409 H         1 <0>         0.4303
     34 H6         -0.1717   -3.2383   -7.0385 H         1 <0>         0.1621
     35 H7         -0.6348    1.5193   -6.8295 H         1 <0>         0.1663
     36 H8         -1.0565    3.2673   -8.4837 H         1 <0>         0.1344
     37 H9         -1.3388    2.6947  -10.8579 H         1 <0>         0.1359
     38 H10        -1.1902    0.3614  -11.6038 H         1 <0>         0.1384
     39 H11        -1.4280   -1.8426    0.9477 H         1 <0>         0.1212
     40 H12        -1.2928   -3.3952    2.8506 H         1 <0>         0.1264
     41 H13         0.2800   -5.2860    2.7920 H         1 <0>         0.1244
     42 H14         1.7266   -5.6344    0.8329 H         1 <0>         0.1257
     43 H15         1.5983   -4.0995   -1.0849 H         1 <0>         0.1232
@<TRIPOS>BOND
     1    1    2 1
     2    1   30 1
     3    1   31 1
     4    1   32 1
     5    2    3 2
     6    2    4 1
     7    4    8 1
     8    4    5 2
     9    5    6 1
    10    5   24 1
    11    6    7 2
    12    7    8 1
    13    7    9 1
    14    9   10 am
    15    9   33 1
    16   10   11 2
    17   10   12 1
    18   12   19 1
    19   12   13 2
    20   13   14 1
    21   13   34 1
    22   14   15 2
    23   14   16 am
    24   16   17 1
    25   16   18 1
    26   18   23 ar
    27   18   19 ar
    28   19   20 ar
    29   20   21 ar
    30   20   35 1
    31   21   22 ar
    32   21   36 1
    33   22   23 ar
    34   22   37 1
    35   23   38 1
    36   24   29 ar
    37   24   25 ar
    38   25   26 ar
    39   25   39 1
    40   26   27 ar
    41   26   40 1
    42   27   28 ar
    43   27   41 1
    44   28   29 ar
    45   28   42 1
    46   29   43 1
@<TRIPOS>MOLECULE
ZINC47356528
   53    55     0     0     0
SMALL
USER_CHARGES

@<TRIPOS>ATOM
      1 C1          0.4403    1.7314    0.1361 C.3       1 <0>        -0.1495
      2 C2          0.4312    0.2032    0.0630 C.3       1 <0>        -0.0839
      3 H1          1.0061   -0.1225   -0.8038 H         1 <0>         0.0722
      4 C3         -1.0105   -0.2926   -0.0657 C.3       1 <0>        -0.1185
      5 C4         -1.0197   -1.8208   -0.1388 C.3       1 <0>        -0.1169
      6 C5         -0.3942   -2.3960    1.1336 C.3       1 <0>        -0.1303
      7 C6          1.0475   -1.9002    1.2622 C.3       1 <0>         0.1521
      8 H2          1.6225   -2.2259    0.3954 H         1 <0>         0.0881
      9 C7          1.0567   -0.3720    1.3353 C.3       1 <0>        -0.0931
     10 H3          2.0838   -0.0188    1.4270 H         1 <0>         0.0770
     11 C8          0.2496    0.0853    2.5521 C.3       1 <0>        -0.1560
     12 N1          1.6464   -2.4509    2.4805 N.am      1 <0>        -0.7216
     13 C9          2.2063   -3.6768    2.4615 C.2       1 <0>         0.5013
     14 O1          2.2143   -4.3239    1.4358 O.2       1 <0>        -0.5225
     15 C10         2.8224   -4.2433    3.7147 C.3       1 <0>         0.0979
     16 N2          3.3585   -5.5777    3.4351 N.am      1 <0>        -0.5598
     17 C11         2.6534   -6.7190    3.5632 C.2       1 <0>         0.5405
     18 O2          1.4996   -6.8310    3.9180 O.2       1 <0>        -0.4480
     19 C12         3.6028   -7.8335    3.1704 C.3       1 <0>         0.1756
     20 N3          4.8496   -7.1242    2.8352 N.am      1 <0>        -0.7129
     21 C13         4.6069   -5.8133    3.0156 C.2       1 <0>         0.7150
     22 O3          5.4307   -4.9409    2.8223 O.2       1 <0>        -0.5316
     23 C14         3.8261   -8.7891    4.3442 C.3       1 <0>        -0.1600
     24 C15         3.0778   -8.5790    1.9705 C.ar      1 <0>        -0.1804
     25 C16         3.5302   -8.2569    0.7026 C.ar      1 <0>         0.1569
     26 C17         3.0471   -8.9425   -0.3992 C.ar      1 <0>        -0.1646
     27 C18         2.1135   -9.9480   -0.2334 C.ar      1 <0>        -0.0468
     28 C19         1.6608  -10.2702    1.0321 C.ar      1 <0>        -0.1646
     29 C20         2.1471   -9.5901    2.1360 C.ar      1 <0>         0.1590
     30 F1          1.7089   -9.9093    3.3734 F         1 <0>        -0.1167
     31 F2          4.4424   -7.2737    0.5401 F         1 <0>        -0.1168
     32 H4          1.4674    2.0847    0.2277 H         1 <0>         0.0550
     33 H5         -0.0053    2.1412   -0.7704 H         1 <0>         0.0562
     34 H6         -0.1347    2.0572    1.0029 H         1 <0>         0.0590
     35 H7         -1.5855    0.0331    0.8012 H         1 <0>         0.0671
     36 H8         -1.4562    0.1172   -0.9721 H         1 <0>         0.0642
     37 H9         -2.0468   -2.1741   -0.2304 H         1 <0>         0.0657
     38 H10        -0.4447   -2.1466   -1.0056 H         1 <0>         0.0635
     39 H11        -0.9692   -2.0703    2.0004 H         1 <0>         0.0681
     40 H12        -0.4007   -3.4848    1.0815 H         1 <0>         0.0652
     41 H13        -0.7775   -0.2680    2.4604 H         1 <0>         0.0658
     42 H14         0.6952   -0.3245    3.4585 H         1 <0>         0.0509
     43 H15         0.2561    1.1740    2.6041 H         1 <0>         0.0640
     44 H16         1.6400   -1.9334    3.3009 H         1 <0>         0.4010
     45 H17         3.6285   -3.5908    4.0503 H         1 <0>         0.1305
     46 H18         2.0630   -4.3127    4.4935 H         1 <0>         0.1273
     47 H19         5.6823   -7.5241    2.5392 H         1 <0>         0.4435
     48 H20         2.8625   -9.1159    4.7351 H         1 <0>         0.1016
     49 H21         4.3931   -9.6558    4.0044 H         1 <0>         0.0839
     50 H22         4.3817   -8.2765    5.1294 H         1 <0>         0.0784
     51 H23         3.3996   -8.6911   -1.3886 H         1 <0>         0.1481
     52 H24         1.7373  -10.4822   -1.0933 H         1 <0>         0.1496
     53 H25         0.9308  -11.0556    1.1605 H         1 <0>         0.1501
@<TRIPOS>BOND
     1    1    2 1
     2    1   32 1
     3    1   33 1
     4    1   34 1
     5    2    3 1
     6    2    9 1
     7    2    4 1
     8    4    5 1
     9    4   35 1
    10    4   36 1
    11    5    6 1
    12    5   37 1
    13    5   38 1
    14    6    7 1
    15    6   39 1
    16    6   40 1
    17    7    8 1
    18    7    9 1
    19    7   12 1
    20    9   10 1
    21    9   11 1
    22   11   41 1
    23   11   42 1
    24   11   43 1
    25   12   13 am
    26   12   44 1
    27   13   14 2
    28   13   15 1
    29   15   16 1
    30   15   45 1
    31   15   46 1
    32   16   21 am
    33   16   17 am
    34   17   18 2
    35   17   19 1
    36   19   20 1
    37   19   23 1
    38   19   24 1
    39   20   21 am
    40   20   47 1
    41   21   22 2
    42   23   48 1
    43   23   49 1
    44   23   50 1
    45   24   29 ar
    46   24   25 ar
    47   25   26 ar
    48   25   31 1
    49   26   27 ar
    50   26   51 1
    51   27   28 ar
    52   27   52 1
    53   28   29 ar
    54   28   53 1
    55   29   30 1
@<TRIPOS>MOLECULE
ZINC06554347
   52    55     0     0     0
SMALL
USER_CHARGES

@<TRIPOS>ATOM
      1 C1         -0.0187    1.5258    0.0104 C.3       1 <0>        -0.1539
      2 C2          0.0021   -0.0041    0.0020 C.3       1 <0>         0.0550
      3 O1         -1.3386   -0.4987    0.0122 O.3       1 <0>        -0.3166
      4 C3         -1.4983   -1.8483    0.0064 C.ar      1 <0>         0.1406
      5 C4         -0.3876   -2.6794   -0.0028 C.ar      1 <0>        -0.2074
      6 C5         -0.5526   -4.0509   -0.0082 C.ar      1 <0>        -0.0610
      7 C6         -1.8235   -4.5955   -0.0047 C.ar      1 <0>        -0.0891
      8 C7         -2.9322   -3.7693    0.0041 C.ar      1 <0>        -0.0366
      9 C8         -2.7724   -2.3972    0.0157 C.ar      1 <0>        -0.1459
     10 C9         -2.0007   -6.0920   -0.0110 C.3       1 <0>         0.0640
     11 H1         -1.0163   -6.5600   -0.0180 H         1 <0>         0.0974
     12 C10        -2.7278   -6.4843   -1.2589 C.2       1 <0>        -0.2633
     13 C11        -2.6926   -5.6891   -2.4285 C.2       1 <0>         0.2967
     14 N1         -3.4117   -6.2690   -3.3500 N.2       1 <0>        -0.2699
     15 N2         -3.9329   -7.4474   -2.8165 N.pl3     1 <0>        -0.3756
     16 C12        -3.4948   -7.5652   -1.5186 C.2       1 <0>         0.3422
     17 N3         -3.8499   -8.6445   -0.7455 N.am      1 <0>        -0.6269
     18 C13        -3.6411   -8.9993    0.4867 C.2       1 <0>         0.5413
     19 O2         -4.2258  -10.0034    0.8343 O.2       1 <0>        -0.5275
     20 C14        -2.8038   -8.3743    1.5324 C.3       1 <0>        -0.1264
     21 S1         -2.8584   -6.5768    1.4892 S.3       1 <0>        -0.1797
     22 C15        -4.7987   -8.3976   -3.5191 C.3       1 <0>         0.1663
     23 C16        -4.0684   -8.9395   -4.7496 C.3       1 <0>        -0.1258
     24 C17        -4.9727   -9.9319   -5.4833 C.3       1 <0>        -0.1179
     25 C18        -6.2560   -9.2240   -5.9226 C.3       1 <0>        -0.1248
     26 C19        -6.9863   -8.6821   -4.6922 C.3       1 <0>        -0.1179
     27 C20        -6.0820   -7.6897   -3.9584 C.3       1 <0>        -0.1268
     28 O3         -2.0213   -4.5149   -2.5689 O.3       1 <0>        -0.4417
     29 H2          1.0039    1.9031    0.0027 H         1 <0>         0.0786
     30 H3         -0.5459    1.8868   -0.8726 H         1 <0>         0.0666
     31 H4         -0.5289    1.8773    0.9072 H         1 <0>         0.0665
     32 H5          0.5123   -0.3556   -0.8948 H         1 <0>         0.0621
     33 H6          0.5293   -0.3651    0.8851 H         1 <0>         0.0619
     34 H7          0.6053   -2.2545   -0.0062 H         1 <0>         0.1272
     35 H8          0.3118   -4.6984   -0.0154 H         1 <0>         0.1230
     36 H9         -3.9238   -4.1971    0.0064 H         1 <0>         0.1244
     37 H10        -3.6386   -1.7523    0.0270 H         1 <0>         0.1287
     38 H11        -4.3809   -9.2929   -1.2339 H         1 <0>         0.4027
     39 H12        -3.1507   -8.7129    2.5087 H         1 <0>         0.1557
     40 H13        -1.7722   -8.6994    1.3969 H         1 <0>         0.1242
     41 H14        -5.0489   -9.2228   -2.8524 H         1 <0>         0.0946
     42 H15        -3.8182   -8.1143   -5.4163 H         1 <0>         0.0833
     43 H16        -3.1542   -9.4438   -4.4366 H         1 <0>         0.0678
     44 H17        -4.4524  -10.3180   -6.3599 H         1 <0>         0.0734
     45 H18        -5.2229  -10.7571   -4.8166 H         1 <0>         0.0658
     46 H19        -6.0058   -8.3988   -6.5894 H         1 <0>         0.0673
     47 H20        -6.9002   -9.9310   -6.4454 H         1 <0>         0.0689
     48 H21        -7.9005   -8.1778   -5.0051 H         1 <0>         0.0738
     49 H22        -7.2365   -9.5073   -4.0255 H         1 <0>         0.0659
     50 H23        -6.6023   -7.3036   -3.0818 H         1 <0>         0.0694
     51 H24        -5.8318   -6.8645   -4.6252 H         1 <0>         0.0835
     52 H25        -1.1141   -4.6162   -2.8879 H         1 <0>         0.3957
@<TRIPOS>BOND
     1    1    2 1
     2    1   29 1
     3    1   30 1
     4    1   31 1
     5    2    3 1
     6    2   32 1
     7    2   33 1
     8    3    4 1
     9    4    9 ar
    10    4    5 ar
    11    5    6 ar
    12    5   34 1
    13    6    7 ar
    14    6   35 1
    15    7    8 ar
    16    7   10 1
    17    8    9 ar
    18    8   36 1
    19    9   37 1
    20   10   11 1
    21   10   21 1
    22   10   12 1
    23   12   16 2
    24   12   13 1
    25   13   14 2
    26   13   28 1
    27   14   15 1
    28   15   16 1
    29   15   22 1
    30   16   17 1
    31   17   18 am
    32   17   38 1
    33   18   19 2
    34   18   20 1
    35   20   21 1
    36   20   39 1
    37   20   40 1
    38   22   27 1
    39   22   23 1
    40   22   41 1
    41   23   24 1
    42   23   42 1
    43   23   43 1
    44   24   25 1
    45   24   44 1
    46   24   45 1
    47   25   26 1
    48   25   46 1
    49   25   47 1
    50   26   27 1
    51   26   48 1
    52   26   49 1
    53   27   50 1
    54   27   51 1
    55   28   52 1
@<TRIPOS>MOLECULE
ZINC66840682
   39    41     0     0     0
SMALL
USER_CHARGES

@<TRIPOS>ATOM
      1 C1         -0.0275    1.5407   -0.0273 C.3       1 <0>        -0.1554
      2 C2         -0.0039    0.0109   -0.0202 C.3       1 <0>        -0.0280
      3 C3          0.7358   -0.4820    1.2251 C.3       1 <0>        -0.1478
      4 C4         -1.4167   -0.5132   -0.0056 C.2       1 <0>         0.0273
      5 C5         -1.8632   -1.6353   -0.6171 C.2       1 <0>        -0.1711
      6 C6         -3.2446   -1.7051   -0.3177 C.2       1 <0>        -0.0158
      7 N1         -3.5297   -0.6566    0.4287 N.2       1 <0>        -0.2484
      8 N2         -2.4720    0.0458    0.6247 N.pl3     1 <0>        -0.3721
      9 H1         -2.4371    0.8618    1.1480 H         1 <0>         0.4455
     10 C7         -4.1875   -2.7529   -0.7582 C.2       1 <0>         0.6050
     11 O1         -3.7945   -3.6728   -1.4492 O.2       1 <0>        -0.5107
     12 N3         -5.4836   -2.6894   -0.3941 N.am      1 <0>        -0.6484
     13 C8         -6.3997   -3.6157   -0.9042 C.ar      1 <0>         0.1627
     14 C9         -6.1545   -4.2404   -2.1187 C.ar      1 <0>        -0.0857
     15 C10        -7.0610   -5.1557   -2.6203 C.ar      1 <0>        -0.0771
     16 C11        -8.2142   -5.4512   -1.9143 C.ar      1 <0>        -0.0838
     17 C12        -8.4660   -4.8332   -0.7044 C.ar      1 <0>        -0.1119
     18 C13        -7.5589   -3.9182   -0.1908 C.ar      1 <0>         0.1380
     19 N4         -7.8101   -3.2942    1.0401 N.pl3     1 <0>        -0.3205
     20 C14        -8.8370   -3.5676    1.8758 C.2       1 <0>         0.0608
     21 C15        -8.7221   -2.7522    2.9500 C.2       1 <0>        -0.2578
     22 C16        -7.5881   -1.9540    2.7656 C.2       1 <0>         0.0718
     23 N5         -7.0378   -2.2816    1.6238 N.2       1 <0>        -0.3087
     24 Br1        -6.7248   -6.0058   -4.2756 Br        1 <0>        -0.0328
     25 H2          0.9944    1.9198   -0.0378 H         1 <0>         0.0719
     26 H3         -0.5545    1.8919   -0.9145 H         1 <0>         0.0620
     27 H4         -0.5393    1.9003    0.8654 H         1 <0>         0.0527
     28 H5          0.5079   -0.3487   -0.9129 H         1 <0>         0.1012
     29 H6          0.7526   -1.5718    1.2302 H         1 <0>         0.0632
     30 H7          1.7577   -0.1029    1.2146 H         1 <0>         0.0679
     31 H8          0.2240   -0.1224    2.1178 H         1 <0>         0.0545
     32 H9         -1.2868   -2.3306   -1.2093 H         1 <0>         0.1652
     33 H10        -5.7813   -2.0014    0.2215 H         1 <0>         0.4337
     34 H11        -5.2558   -4.0113   -2.6722 H         1 <0>         0.1668
     35 H12        -8.9196   -6.1667   -2.3105 H         1 <0>         0.1468
     36 H13        -9.3672   -5.0657   -0.1566 H         1 <0>         0.1453
     37 H14        -9.6104   -4.3040    1.7150 H         1 <0>         0.1820
     38 H15        -9.3884   -2.7227    3.7994 H         1 <0>         0.1585
     39 H16        -7.2265   -1.2004    3.4494 H         1 <0>         0.1929
@<TRIPOS>BOND
     1    1    2 1
     2    1   25 1
     3    1   26 1
     4    1   27 1
     5    2    3 1
     6    2    4 1
     7    2   28 1
     8    3   29 1
     9    3   30 1
    10    3   31 1
    11    4    8 1
    12    4    5 2
    13    5    6 1
    14    5   32 1
    15    6    7 2
    16    6   10 1
    17    7    8 1
    18    8    9 1
    19   10   11 2
    20   10   12 am
    21   12   13 1
    22   12   33 1
    23   13   18 ar
    24   13   14 ar
    25   14   15 ar
    26   14   34 1
    27   15   16 ar
    28   15   24 1
    29   16   17 ar
    30   16   35 1
    31   17   18 ar
    32   17   36 1
    33   18   19 1
    34   19   23 1
    35   19   20 1
    36   20   21 2
    37   20   37 1
    38   21   22 1
    39   21   38 1
    40   22   23 2
    41   22   39 1
@<TRIPOS>MOLECULE
ZINC13264557
   53    57     0     0     0
SMALL
USER_CHARGES
(E)-3-(1,3-benzothiazol-2-yl)-4-(1-benzyl-3-phenyl-pyrazol-4-yl)but-3-enoic acid
@<TRIPOS>ATOM
      1 C1          1.3271   11.0348   -4.1564 C.ar      1 <0>        -0.1134
      2 C2          0.8876   11.4150   -2.9021 C.ar      1 <0>        -0.1269
      3 C3          1.2271   10.6625   -1.7933 C.ar      1 <0>        -0.0829
      4 C4          2.0060    9.5298   -1.9388 C.ar      1 <0>        -0.1048
      5 C5          2.4498    9.1525   -3.1924 C.ar      1 <0>        -0.0968
      6 C6          2.1060    9.9021   -4.3019 C.ar      1 <0>        -0.1241
      7 C7          2.3764    8.7097   -0.7300 C.3       1 <0>         0.1706
      8 N1          1.3568    7.6818   -0.5061 N.pl3     1 <0>        -0.3626
      9 C8          1.5950    6.3613   -0.4117 C.2       1 <0>         0.0999
     10 C9          0.3873    5.7277   -0.2018 C.2       1 <0>        -0.2098
     11 C10        -0.6338    6.7795   -0.1792 C.2       1 <0>         0.1238
     12 N2         -0.0119    7.9236   -0.3584 N.2       1 <0>        -0.2781
     13 C11        -2.0914    6.5891    0.0133 C.ar      1 <0>        -0.0013
     14 C12        -2.7248    5.4623   -0.5086 C.ar      1 <0>        -0.0945
     15 C13        -4.0810    5.2880   -0.3221 C.ar      1 <0>        -0.1190
     16 C14        -4.8137    6.2343    0.3716 C.ar      1 <0>        -0.1178
     17 C15        -4.1914    7.3568    0.8876 C.ar      1 <0>        -0.1242
     18 C16        -2.8348    7.5391    0.7119 C.ar      1 <0>        -0.0928
     19 C17         0.1670    4.2824   -0.0394 C.2       1 <0>         0.0060
     20 C18         1.1073    3.5199    0.5526 C.2       1 <0>        -0.0474
     21 C19         2.3218    4.1646    1.1693 C.3       1 <0>        -0.1346
     22 C20         3.4664    4.1195    0.1900 C.2       1 <0>         0.4610
     23 O1          3.3117    3.6155   -0.8972 O.co2     1 <0>        -0.6206
     24 C21         0.9489    2.0641    0.5967 C.2       1 <0>         0.2524
     25 N3         -0.0326    1.3233    0.1182 N.2       1 <0>        -0.5288
     26 C22        -0.0462   -0.0183    0.2325 C.ar      1 <0>         0.0965
     27 C23        -1.0293   -0.9250   -0.2322 C.ar      1 <0>        -0.0728
     28 C24        -0.8918   -2.2633   -0.0348 C.ar      1 <0>        -0.1139
     29 C25         0.2082   -2.7936    0.6250 C.ar      1 <0>        -0.1149
     30 C26         1.1917   -1.9427    1.0950 C.ar      1 <0>        -0.0609
     31 C27         1.0629   -0.5895    0.9010 C.ar      1 <0>        -0.1632
     32 S1          2.0358    0.8389    1.3123 S.3       1 <0>         0.0070
     33 H1          1.0622   11.6229   -5.0226 H         1 <0>         0.1201
     34 H2          0.2794   12.3001   -2.7884 H         1 <0>         0.1213
     35 H3          0.8840   10.9598   -0.8134 H         1 <0>         0.1232
     36 H4          3.0621    8.2700   -3.3055 H         1 <0>         0.1254
     37 H5          2.4497    9.6052   -5.2817 H         1 <0>         0.1227
     38 H6          2.4369    9.3580    0.1442 H         1 <0>         0.0951
     39 H7          3.3424    8.2331   -0.8964 H         1 <0>         0.1125
     40 H8          2.5599    5.8821   -0.4870 H         1 <0>         0.1980
     41 H9         -2.1545    4.7251   -1.0542 H         1 <0>         0.1307
     42 H10        -4.5721    4.4134   -0.7225 H         1 <0>         0.1248
     43 H11        -5.8757    6.0960    0.5112 H         1 <0>         0.1202
     44 H12        -4.7684    8.0921    1.4287 H         1 <0>         0.1220
     45 H13        -2.3500    8.4159    1.1152 H         1 <0>         0.1247
     46 H14        -0.7482    3.8323   -0.3946 H         1 <0>         0.1313
     47 H15         2.0962    5.2019    1.4170 H         1 <0>         0.0903
     48 H16         2.5980    3.6264    2.0760 H         1 <0>         0.0744
     49 H17        -1.8991   -0.5491   -0.7504 H         1 <0>         0.1280
     50 H18        -1.6583   -2.9307   -0.4003 H         1 <0>         0.1275
     51 H19         0.2953   -3.8603    0.7694 H         1 <0>         0.1323
     52 H20         2.0542   -2.3392    1.6101 H         1 <0>         0.1291
     53 O2          4.6576    4.6393    0.5255 O.co2     1 <0>        -0.7646
@<TRIPOS>BOND
     1    1    6 ar
     2    1    2 ar
     3    1   33 1
     4    2    3 ar
     5    2   34 1
     6    3    4 ar
     7    3   35 1
     8    4    5 ar
     9    4    7 1
    10    5    6 ar
    11    5   36 1
    12    6   37 1
    13    7    8 1
    14    7   38 1
    15    7   39 1
    16    8   12 1
    17    8    9 1
    18    9   10 2
    19    9   40 1
    20   10   11 1
    21   10   19 1
    22   11   12 2
    23   11   13 1
    24   13   18 ar
    25   13   14 ar
    26   14   15 ar
    27   14   41 1
    28   15   16 ar
    29   15   42 1
    30   16   17 ar
    31   16   43 1
    32   17   18 ar
    33   17   44 1
    34   18   45 1
    35   19   20 2
    36   19   46 1
    37   20   21 1
    38   20   24 1
    39   21   22 1
    40   21   47 1
    41   21   48 1
    42   22   23 2
    43   22   53 1
    44   24   32 1
    45   24   25 2
    46   25   26 1
    47   26   31 ar
    48   26   27 ar
    49   27   28 ar
    50   27   49 1
    51   28   29 ar
    52   28   50 1
    53   29   30 ar
    54   29   51 1
    55   30   31 ar
    56   30   52 1
    57   31   32 1
@<TRIPOS>MOLECULE
ZINC13550075
   42    45     0     0     0
SMALL
USER_CHARGES
2-[(E)-[4-(1,3-benzoxazol-2-yl)-2-methyl-phenyl]iminomethyl]-6-bromo-4-nitro-phenol
@<TRIPOS>ATOM
      1 C1          4.9940   -3.9136    0.1127 C.3       1 <0>        -0.1097
      2 C2          3.7450   -4.7569    0.1093 C.ar      1 <0>        -0.0916
      3 C3          3.8395   -6.1179    0.1792 C.ar      1 <0>        -0.0611
      4 C4          2.6812   -6.9001    0.1755 C.ar      1 <0>        -0.0763
      5 C5          1.4254   -6.2900    0.1008 C.ar      1 <0>        -0.0403
      6 C6          1.3300   -4.9292    0.0358 C.ar      1 <0>        -0.1728
      7 C7          2.4892   -4.1463    0.0341 C.ar      1 <0>         0.1478
      8 N1          2.3943   -2.7852   -0.0354 N.2       1 <0>        -0.4550
      9 C8          1.5693   -2.1479    0.7493 C.2       1 <0>         0.2415
     10 C9          1.3817   -0.6982    0.5966 C.ar      1 <0>        -0.2186
     11 C10         0.4981   -0.0104    1.4357 C.ar      1 <0>         0.0407
     12 C11         0.3274    1.3485    1.2872 C.ar      1 <0>        -0.1760
     13 C12         1.0268    2.0388    0.3104 C.ar      1 <0>         0.0238
     14 C13         1.9028    1.3727   -0.5256 C.ar      1 <0>        -0.2062
     15 C14         2.0880    0.0049   -0.3915 C.ar      1 <0>         0.3363
     16 Br1         2.8510    2.3280   -1.8539 Br        1 <0>        -0.0574
     17 N2         -0.6122    2.0737    2.1716 N.pl3     1 <0>         0.0667
     18 O1         -1.2323    1.4690    3.0280 O.2       1 <0>        -0.2144
     19 O2         -0.7654    3.2751    2.0429 O.3       1 <0>        -0.2137
     20 C15         2.7837   -8.3707    0.2511 C.2       1 <0>         0.3186
     21 N3          1.7661   -9.1954    0.2546 N.2       1 <0>        -0.4844
     22 C16         2.2351  -10.4669    0.3328 C.ar      1 <0>         0.0320
     23 C17         1.6204  -11.7212    0.3711 C.ar      1 <0>        -0.0666
     24 C18         2.3929  -12.8577    0.4532 C.ar      1 <0>        -0.1194
     25 C19         3.7763  -12.7652    0.4982 C.ar      1 <0>        -0.1011
     26 C20         4.3973  -11.5338    0.4608 C.ar      1 <0>        -0.0898
     27 C21         3.6361  -10.3783    0.3786 C.ar      1 <0>         0.0015
     28 O3          3.9375   -9.0619    0.3206 O.3       1 <0>        -0.2100
     29 H1          5.2583   -3.6599    1.1393 H         1 <0>         0.0632
     30 H2          5.8106   -4.4719   -0.3453 H         1 <0>         0.0597
     31 H3          4.8166   -2.9992   -0.4535 H         1 <0>         0.0921
     32 H4          4.8093   -6.5895    0.2369 H         1 <0>         0.1307
     33 H5          0.5306   -6.8948    0.0984 H         1 <0>         0.1363
     34 H6          0.3598   -4.4578   -0.0181 H         1 <0>         0.1315
     35 H7          1.0243   -2.6856    1.5111 H         1 <0>         0.0996
     36 H8         -0.0490   -0.5440    2.1988 H         1 <0>         0.1372
     37 H9          0.8864    3.1041    0.2017 H         1 <0>         0.1362
     38 H10         0.5438  -11.7986    0.3360 H         1 <0>         0.1355
     39 H11         1.9188  -13.8277    0.4825 H         1 <0>         0.1361
     40 H12         4.3717  -13.6640    0.5626 H         1 <0>         0.1391
     41 H13         5.4749  -11.4703    0.4955 H         1 <0>         0.1345
     42 O4          2.9476   -0.6506   -1.2120 O.3       1 <0>        -0.5761
@<TRIPOS>BOND
     1    1    2 1
     2    1   29 1
     3    1   30 1
     4    1   31 1
     5    2    7 ar
     6    2    3 ar
     7    3    4 ar
     8    3   32 1
     9    4    5 ar
    10    4   20 1
    11    5    6 ar
    12    5   33 1
    13    6    7 ar
    14    6   34 1
    15    7    8 1
    16    8    9 2
    17    9   10 1
    18    9   35 1
    19   10   15 ar
    20   10   11 ar
    21   11   12 ar
    22   11   36 1
    23   12   13 ar
    24   12   17 1
    25   13   14 ar
    26   13   37 1
    27   14   15 ar
    28   14   16 1
    29   15   42 1
    30   17   18 2
    31   17   19 1
    32   20   28 1
    33   20   21 2
    34   21   22 1
    35   22   27 ar
    36   22   23 ar
    37   23   24 ar
    38   23   38 1
    39   24   25 ar
    40   24   39 1
    41   25   26 ar
    42   25   40 1
    43   26   27 ar
    44   26   41 1
    45   27   28 1
@<TRIPOS>MOLECULE
ZINC01044371
   42    46     0     0     0
SMALL
USER_CHARGES

@<TRIPOS>ATOM
      1 C1         -0.0158    1.3117    0.0093 C.ar      1 <0>        -0.1132
      2 C2          1.2440    2.0793    0.0013 C.ar      1 <0>        -0.1510
      3 C3          2.3883    1.4394   -0.0129 C.ar      1 <0>        -0.0249
      4 C4          3.6844    2.1402   -0.0210 C.ar      1 <0>        -0.1189
      5 C5          4.8036    1.4487   -0.0347 C.ar      1 <0>        -0.0899
      6 C6          4.8231   -0.0215   -0.0431 C.ar      1 <0>        -0.0825
      7 C7          6.1099   -0.7451   -0.0587 C.ar      1 <0>        -0.1026
      8 C8          6.1278   -2.0608   -0.0663 C.ar      1 <0>        -0.1351
      9 C9          4.8680   -2.8285   -0.0588 C.ar      1 <0>        -0.0697
     10 C10         3.7237   -2.1887   -0.0444 C.ar      1 <0>        -0.0337
     11 C11         3.7094   -0.7140   -0.0364 C.ar      1 <0>         0.0034
     12 C12         2.4025   -0.0353   -0.0209 C.ar      1 <0>        -0.1154
     13 C13         1.2888   -0.7278   -0.0139 C.ar      1 <0>         0.0603
     14 C14         0.0021   -0.0041    0.0020 C.ar      1 <0>        -0.1211
     15 C15         1.3084   -2.1979   -0.0215 C.ar      1 <0>        -0.3683
     16 C16         2.4275   -2.8894   -0.0361 C.ar      1 <0>         0.3224
     17 N1          2.3883   -4.2438   -0.0437 N.2       1 <0>        -1.0847
     18 S1          0.9308   -5.0300   -0.0344 S.o2      1 <0>         2.6120
     19 O1          0.3238   -4.7454    1.2185 O.2       1 <0>        -1.0088
     20 O2          0.3001   -4.7307   -1.2720 O.2       1 <0>        -1.0088
     21 C17         1.2714   -6.7588   -0.0478 C.ar      1 <0>        -0.5747
     22 C18         1.3991   -7.4288   -1.2501 C.ar      1 <0>        -0.0223
     23 C19         1.6663   -8.7850   -1.2607 C.ar      1 <0>        -0.0792
     24 C20         1.8061   -9.4712   -0.0688 C.ar      1 <0>        -0.0168
     25 C21         1.6792   -8.8010    1.1336 C.ar      1 <0>        -0.0792
     26 C22         1.4163   -7.4439    1.1440 C.ar      1 <0>        -0.0224
     27 N2          2.0912  -10.9236   -0.0801 N.pl3     1 <0>         0.0324
     28 O3          2.2017  -11.5098   -1.1316 O.2       1 <0>        -0.1569
     29 O4          2.2135  -11.5237    0.9623 O.3       1 <0>        -0.1571
     30 H1         -0.9609    1.8341    0.0256 H         1 <0>         0.1168
     31 H2          1.2239    3.1591    0.0069 H         1 <0>         0.1175
     32 H3          3.7157    3.2197   -0.0160 H         1 <0>         0.1227
     33 H4          5.7433    1.9809   -0.0405 H         1 <0>         0.1159
     34 H5          7.0384   -0.1934   -0.0644 H         1 <0>         0.1188
     35 H6          7.0729   -2.5833   -0.0785 H         1 <0>         0.1203
     36 H7          4.8882   -3.9083   -0.0654 H         1 <0>         0.1406
     37 H8         -0.9264   -0.5557    0.0079 H         1 <0>         0.1188
     38 H9          0.3687   -2.7302   -0.0152 H         1 <0>         0.0945
     39 H10         1.2899   -6.8927   -2.1813 H         1 <0>         0.1620
     40 H11         1.7654   -9.3086   -2.2000 H         1 <0>         0.1584
     41 H12         1.7881   -9.3372    2.0647 H         1 <0>         0.1584
     42 H13         1.3209   -6.9196    2.0834 H         1 <0>         0.1620
@<TRIPOS>BOND
     1    1   14 ar
     2    1    2 ar
     3    1   30 1
     4    2    3 ar
     5    2   31 1
     6    3   12 ar
     7    3    4 ar
     8    4    5 ar
     9    4   32 1
    10    5    6 ar
    11    5   33 1
    12    6   11 ar
    13    6    7 ar
    14    7    8 ar
    15    7   34 1
    16    8    9 ar
    17    8   35 1
    18    9   10 ar
    19    9   36 1
    20   10   16 ar
    21   10   11 ar
    22   11   12 ar
    23   12   13 ar
    24   13   14 ar
    25   13   15 ar
    26   14   37 1
    27   15   16 ar
    28   15   38 1
    29   16   17 1
    30   17   18 1
    31   18   19 2
    32   18   20 2
    33   18   21 1
    34   21   26 ar
    35   21   22 ar
    36   22   23 ar
    37   22   39 1
    38   23   24 ar
    39   23   40 1
    40   24   25 ar
    41   24   27 1
    42   25   26 ar
    43   25   41 1
    44   26   42 1
    45   27   28 2
    46   27   29 1
@<TRIPOS>MOLECULE
ZINC40927156
   50    52     0     0     0
SMALL
USER_CHARGES

@<TRIPOS>ATOM
      1 C1         -0.0957    1.8802   -0.4480 C.3       1 <0>        -0.1474
      2 C2         -0.0252    0.3620   -0.6242 C.3       1 <0>         0.0757
      3 C3          0.9052   -0.2317    0.4354 C.3       1 <0>        -0.1804
      4 O1         -1.3326   -0.1958   -0.4766 O.3       1 <0>        -0.3144
      5 C4         -1.5706   -1.3822   -1.0954 C.ar      1 <0>         0.1183
      6 C5         -0.5342   -2.0520   -1.7311 C.ar      1 <0>        -0.2126
      7 C6         -0.7725   -3.2562   -2.3600 C.ar      1 <0>        -0.0510
      8 C7         -2.0557   -3.8008   -2.3563 C.ar      1 <0>        -0.0378
      9 C8         -3.0942   -3.1259   -1.7166 C.ar      1 <0>        -0.0721
     10 C9         -2.8484   -1.9244   -1.0854 C.ar      1 <0>        -0.1555
     11 C10        -2.3156   -5.0955   -3.0320 C.2       1 <0>         0.1278
     12 C11        -3.5754   -5.6317   -3.0354 C.2       1 <0>        -0.3089
     13 S1         -3.2953   -7.1361   -3.9602 S.3       1 <0>        -0.0527
     14 C12        -1.5466   -6.9007   -4.2457 C.2       1 <0>         0.4121
     15 N1         -1.3342   -5.7383   -3.6405 N.2       1 <0>        -0.5719
     16 N2         -0.6697   -7.6965   -4.9094 N.2       1 <0>        -0.5803
     17 C13        -1.0830   -8.8214   -5.4517 C.2       1 <0>         0.4582
     18 O2         -2.3814   -9.1852   -5.3479 O.3       1 <0>        -0.6613
     19 C14        -0.1339   -9.6828   -6.1700 C.2       1 <0>        -0.0345
     20 C15        -0.5668  -10.8614   -6.7381 C.2       1 <0>         0.0162
     21 C16         0.4009  -11.7875   -7.3307 C.ar      1 <0>        -0.1158
     22 C17         1.7043  -11.8660   -6.8195 C.ar      1 <0>        -0.0591
     23 C18         2.6056  -12.7349   -7.3784 C.ar      1 <0>        -0.1492
     24 C19         2.2294  -13.5375   -8.4503 C.ar      1 <0>         0.1353
     25 C20         0.9380  -13.4642   -8.9618 C.ar      1 <0>        -0.2127
     26 C21         0.0260  -12.6034   -8.4077 C.ar      1 <0>        -0.0492
     27 O3          3.1261  -14.3952   -8.9997 O.3       1 <0>        -0.3165
     28 C22         2.6746  -15.1904  -10.0978 C.3       1 <0>         0.0264
     29 C23         1.2410   -9.2976   -6.2799 C.1       1 <0>         0.2769
     30 N3          2.3316   -8.9921   -6.3670 N.1       1 <0>        -0.4323
     31 H1          0.9015    2.3057   -0.5606 H         1 <0>         0.0741
     32 H2         -0.7586    2.3032   -1.2029 H         1 <0>         0.0637
     33 H3         -0.4802    2.1133    0.5449 H         1 <0>         0.0649
     34 H4          0.3593    0.1289   -1.6171 H         1 <0>         0.0738
     35 H5          0.9554   -1.3133    0.3099 H         1 <0>         0.0654
     36 H6          1.9024    0.1938    0.3228 H         1 <0>         0.0690
     37 H7          0.5206    0.0014    1.4283 H         1 <0>         0.0651
     38 H8          0.4597   -1.6296   -1.7336 H         1 <0>         0.1256
     39 H9          0.0341   -3.7765   -2.8550 H         1 <0>         0.1362
     40 H10        -4.0895   -3.5453   -1.7120 H         1 <0>         0.1297
     41 H11        -3.6518   -1.4029   -0.5864 H         1 <0>         0.1267
     42 H12        -4.4871   -5.2511   -2.5990 H         1 <0>         0.1681
     43 H13        -1.6196  -11.1021   -6.7464 H         1 <0>         0.1613
     44 H14         1.9977  -11.2431   -5.9874 H         1 <0>         0.1348
     45 H15         3.6099  -12.7960   -6.9859 H         1 <0>         0.1327
     46 H16         0.6518  -14.0899   -9.7943 H         1 <0>         0.1310
     47 H17        -0.9777  -12.5506   -8.8029 H         1 <0>         0.1352
     48 H18         3.4874  -15.8302  -10.4415 H         1 <0>         0.0989
     49 H19         1.8359  -15.8087   -9.7780 H         1 <0>         0.0565
     50 H20         2.3562  -14.5388  -10.9115 H         1 <0>         0.0563
@<TRIPOS>BOND
     1    1    2 1
     2    1   31 1
     3    1   32 1
     4    1   33 1
     5    2    3 1
     6    2    4 1
     7    2   34 1
     8    3   35 1
     9    3   36 1
    10    3   37 1
    11    4    5 1
    12    5   10 ar
    13    5    6 ar
    14    6    7 ar
    15    6   38 1
    16    7    8 ar
    17    7   39 1
    18    8    9 ar
    19    8   11 1
    20    9   10 ar
    21    9   40 1
    22   10   41 1
    23   11   15 1
    24   11   12 2
    25   12   13 1
    26   12   42 1
    27   13   14 1
    28   14   15 2
    29   14   16 1
    30   16   17 2
    31   17   18 1
    32   17   19 1
    33   19   20 2
    34   19   29 1
    35   20   21 1
    36   20   43 1
    37   21   26 ar
    38   21   22 ar
    39   22   23 ar
    40   22   44 1
    41   23   24 ar
    42   23   45 1
    43   24   25 ar
    44   24   27 1
    45   25   26 ar
    46   25   46 1
    47   26   47 1
    48   27   28 1
    49   28   48 1
    50   28   49 1
    51   28   50 1
    52   29   30 3
@<TRIPOS>MOLECULE
ZINC02718032
   43    46     0     0     0
SMALL
USER_CHARGES

@<TRIPOS>ATOM
      1 C1         -0.0184    1.5028    0.0103 C.3       1 <0>        -0.1094
      2 C2          0.0021   -0.0041    0.0020 C.ar      1 <0>        -0.1071
      3 C3          0.0057   -0.6875   -1.2004 C.ar      1 <0>        -0.0964
      4 C4          0.0239   -2.0682   -1.2114 C.ar      1 <0>        -0.1198
      5 C5          0.0391   -2.7706   -0.0132 C.ar      1 <0>         0.1831
      6 C6          0.0359   -2.0815    1.1922 C.ar      1 <0>        -0.1205
      7 C7          0.0229   -0.7003    1.1964 C.ar      1 <0>        -0.0747
      8 C8          0.0251    0.0486    2.5042 C.3       1 <0>        -0.1113
      9 N1          0.0572   -4.1710   -0.0209 N.pl3     1 <0>        -0.3478
     10 C9         -0.5674   -4.9751   -0.9319 C.ar      1 <0>         0.3714
     11 N2         -1.3237   -4.7579   -2.0052 N.ar      1 <0>        -0.5974
     12 C10        -1.7996   -5.7716   -2.7092 C.ar      1 <0>         0.3804
     13 N3         -1.5537   -7.0380   -2.3898 N.ar      1 <0>        -0.6344
     14 C11        -0.8105   -7.3477   -1.3373 C.ar      1 <0>         0.5087
     15 O1         -0.5655   -8.6406   -1.0199 O.3       1 <0>        -0.6679
     16 C12        -0.2816   -6.3030   -0.5570 C.ar      1 <0>        -0.3635
     17 C13         0.5278   -6.2409    0.5991 C.2       1 <0>         0.1371
     18 N4          0.7237   -4.9887    0.9004 N.2       1 <0>        -0.2999
     19 S1         -2.7964   -5.4304   -4.1216 S.3       1 <0>        -0.0230
     20 C14        -3.2199   -7.0721   -4.7666 C.3       1 <0>        -0.0645
     21 C15        -4.0828   -6.9227   -5.9930 C.ar      1 <0>        -0.0600
     22 C16        -5.4583   -6.8658   -5.8673 C.ar      1 <0>        -0.0884
     23 C17        -6.2503   -6.7287   -6.9917 C.ar      1 <0>        -0.1107
     24 C18        -5.6662   -6.6484   -8.2433 C.ar      1 <0>        -0.0343
     25 C19        -4.2895   -6.7054   -8.3685 C.ar      1 <0>        -0.1108
     26 C20        -3.4983   -6.8368   -7.2429 C.ar      1 <0>        -0.0884
     27 Cl1        -6.6603   -6.4768   -9.6561 Cl        1 <0>        -0.0773
     28 H1          1.0042    1.8801    0.0026 H         1 <0>         0.0662
     29 H2         -0.5455    1.8639   -0.8728 H         1 <0>         0.0639
     30 H3         -0.5286    1.8543    0.9071 H         1 <0>         0.0655
     31 H4         -0.0061   -0.1408   -2.1317 H         1 <0>         0.1263
     32 H5          0.0260   -2.6014   -2.1506 H         1 <0>         0.1351
     33 H6          0.0473   -2.6249    2.1255 H         1 <0>         0.1282
     34 H7         -1.0019    0.2151    2.8292 H         1 <0>         0.0687
     35 H8          0.5541   -0.5362    3.2568 H         1 <0>         0.0653
     36 H9          0.5247    1.0083    2.3725 H         1 <0>         0.0678
     37 H10         0.9211   -7.0888    1.1400 H         1 <0>         0.1885
     38 H11        -2.3065   -7.6065   -5.0280 H         1 <0>         0.1050
     39 H12        -3.7636   -7.6323   -4.0059 H         1 <0>         0.1050
     40 H13        -5.9142   -6.9288   -4.8902 H         1 <0>         0.1368
     41 H14        -7.3249   -6.6846   -6.8933 H         1 <0>         0.1338
     42 H15        -3.8330   -6.6431   -9.3453 H         1 <0>         0.1338
     43 H16        -2.4234   -6.8765   -7.3401 H         1 <0>         0.1368
@<TRIPOS>BOND
     1    1    2 1
     2    1   28 1
     3    1   29 1
     4    1   30 1
     5    2    7 ar
     6    2    3 ar
     7    3    4 ar
     8    3   31 1
     9    4    5 ar
    10    4   32 1
    11    5    6 ar
    12    5    9 1
    13    6    7 ar
    14    6   33 1
    15    7    8 1
    16    8   34 1
    17    8   35 1
    18    8   36 1
    19    9   18 1
    20    9   10 1
    21   10   16 ar
    22   10   11 ar
    23   11   12 ar
    24   12   13 ar
    25   12   19 1
    26   13   14 ar
    27   14   15 1
    28   14   16 ar
    29   16   17 1
    30   17   18 2
    31   17   37 1
    32   19   20 1
    33   20   21 1
    34   20   38 1
    35   20   39 1
    36   21   26 ar
    37   21   22 ar
    38   22   23 ar
    39   22   40 1
    40   23   24 ar
    41   23   41 1
    42   24   25 ar
    43   24   27 1
    44   25   26 ar
    45   25   42 1
    46   26   43 1
@<TRIPOS>MOLECULE
ZINC04372931
   45    48     0     0     0
SMALL
USER_CHARGES
2-[[3-(5,6-dimethylbenzooxazol-2-yl)phenyl]iminomethyl]-6-nitro-phenol
@<TRIPOS>ATOM
      1 C1         -1.3347    2.1134    0.0198 C.3       1 <0>        -0.1117
      2 C2         -0.0167    1.3826    0.0096 C.ar      1 <0>        -0.0871
      3 C3          1.1610    2.0962    0.0022 C.ar      1 <0>        -0.0632
      4 C4          2.3818    1.4176   -0.0130 C.ar      1 <0>         0.0279
      5 C5          2.3959    0.0129   -0.0207 C.ar      1 <0>         0.0078
      6 C6          1.2004   -0.6881   -0.0131 C.ar      1 <0>        -0.0882
      7 C7          0.0021   -0.0041    0.0020 C.ar      1 <0>        -0.0645
      8 C8         -1.2960   -0.7696    0.0098 C.3       1 <0>        -0.1134
      9 O1          3.6963   -0.3552   -0.0351 O.3       1 <0>        -0.2037
     10 C9          4.4479    0.7619   -0.0362 C.2       1 <0>         0.3095
     11 N1          3.6784    1.8204   -0.0232 N.2       1 <0>        -0.4767
     12 C10         5.9260    0.7889   -0.0497 C.ar      1 <0>        -0.0237
     13 C11         6.6038    2.0103   -0.0492 C.ar      1 <0>        -0.0921
     14 C12         7.9842    2.0378   -0.0613 C.ar      1 <0>        -0.1049
     15 C13         8.7045    0.8599   -0.0740 C.ar      1 <0>        -0.1439
     16 C14         8.0397   -0.3691   -0.0747 C.ar      1 <0>         0.1115
     17 C15         6.6457   -0.4036   -0.0572 C.ar      1 <0>        -0.0759
     18 N2          8.7549   -1.5361   -0.0874 N.2       1 <0>        -0.4587
     19 C16         9.7691   -1.6704   -0.8955 C.2       1 <0>         0.2321
     20 C17        10.5373   -2.9240   -0.9091 C.ar      1 <0>        -0.2233
     21 C18        11.6261   -3.0727   -1.7744 C.ar      1 <0>         0.0042
     22 C19        12.3414   -4.2503   -1.7816 C.ar      1 <0>        -0.2594
     23 C20        11.9876   -5.2885   -0.9353 C.ar      1 <0>         0.0159
     24 C21        10.9143   -5.1556   -0.0759 C.ar      1 <0>        -0.1963
     25 C22        10.1863   -3.9765   -0.0500 C.ar      1 <0>         0.3261
     26 N3         10.5450   -6.2720    0.8232 N.pl3     1 <0>         0.0652
     27 O2         11.1872   -7.3067    0.8049 O.2       1 <0>        -0.2653
     28 O3          9.5988   -6.1558    1.5813 O.3       1 <0>        -0.1608
     29 H1         -1.6476    2.2840    1.0499 H         1 <0>         0.0729
     30 H2         -1.2233    3.0707   -0.4893 H         1 <0>         0.0685
     31 H3         -2.0864    1.5140   -0.4937 H         1 <0>         0.0718
     32 H4          1.1409    3.1760    0.0082 H         1 <0>         0.1353
     33 H5          1.2067   -1.7680   -0.0186 H         1 <0>         0.1367
     34 H6         -1.6183   -0.9487   -1.0160 H         1 <0>         0.0750
     35 H7         -1.1521   -1.7236    0.5172 H         1 <0>         0.0706
     36 H8         -2.0563   -0.1904    0.5337 H         1 <0>         0.0738
     37 H9          6.0467    2.9355   -0.0389 H         1 <0>         0.1357
     38 H10         8.5029    2.9851   -0.0604 H         1 <0>         0.1304
     39 H11         9.7841    0.8886   -0.0831 H         1 <0>         0.1264
     40 H12         6.1266   -1.3507   -0.0535 H         1 <0>         0.1379
     41 H13        10.0449   -0.8608   -1.5550 H         1 <0>         0.0927
     42 H14        11.9060   -2.2657   -2.4354 H         1 <0>         0.1176
     43 H15        13.1820   -4.3644   -2.4500 H         1 <0>         0.1209
     44 H16        12.5544   -6.2078   -0.9477 H         1 <0>         0.1247
     45 O4          9.1357   -3.8424    0.7985 O.3       1 <0>        -0.5784
@<TRIPOS>BOND
     1    1    2 1
     2    1   29 1
     3    1   30 1
     4    1   31 1
     5    2    7 ar
     6    2    3 ar
     7    3    4 ar
     8    3   32 1
     9    4   11 1
    10    4    5 ar
    11    5    6 ar
    12    5    9 1
    13    6    7 ar
    14    6   33 1
    15    7    8 1
    16    8   34 1
    17    8   35 1
    18    8   36 1
    19    9   10 1
    20   10   11 2
    21   10   12 1
    22   12   17 ar
    23   12   13 ar
    24   13   14 ar
    25   13   37 1
    26   14   15 ar
    27   14   38 1
    28   15   16 ar
    29   15   39 1
    30   16   17 ar
    31   16   18 1
    32   17   40 1
    33   18   19 2
    34   19   20 1
    35   19   41 1
    36   20   25 ar
    37   20   21 ar
    38   21   22 ar
    39   21   42 1
    40   22   23 ar
    41   22   43 1
    42   23   24 ar
    43   23   44 1
    44   24   25 ar
    45   24   26 1
    46   25   45 1
    47   26   27 2
    48   26   28 1
@<TRIPOS>MOLECULE
ZINC09144563
   39    42     0     0     0
SMALL
USER_CHARGES
2-[[2-(2-bromophenyl)benzooxazol-5-yl]iminomethyl]-4-nitro-phenol
@<TRIPOS>ATOM
      1 C1         -6.8625    3.6218    0.0916 C.ar      1 <0>        -0.1060
      2 C2         -7.5430    2.4167    0.0913 C.ar      1 <0>        -0.0954
      3 C3         -6.8465    1.2220    0.0773 C.ar      1 <0>        -0.0938
      4 C4         -5.4656    1.2246    0.0630 C.ar      1 <0>        -0.0698
      5 C5         -4.7733    2.4375    0.0627 C.ar      1 <0>         0.0081
      6 C6         -5.4834    3.6392    0.0827 C.ar      1 <0>        -0.0637
      7 C7         -3.2956    2.4486    0.0474 C.2       1 <0>         0.2632
      8 N1         -2.5536    3.5268    0.0458 N.2       1 <0>        -0.4548
      9 C8         -1.2465    3.1574    0.0309 C.ar      1 <0>         0.0387
     10 C9         -0.0470    3.8694    0.0233 C.ar      1 <0>        -0.0609
     11 C10         1.1613    3.1798    0.0080 C.ar      1 <0>         0.1119
     12 C11         1.1704    1.7790    0.0004 C.ar      1 <0>        -0.1288
     13 C12        -0.0126    1.0758    0.0080 C.ar      1 <0>        -0.0773
     14 C13        -1.2246    1.7523    0.0174 C.ar      1 <0>        -0.0119
     15 O1         -2.5158    1.3512    0.0338 O.3       1 <0>        -0.1852
     16 N2          2.3429    3.8712    0.0009 N.2       1 <0>        -0.4566
     17 C14         3.3158    3.5071    0.7883 C.2       1 <0>         0.2355
     18 C15         4.5850    4.2497    0.7807 C.ar      1 <0>        -0.2304
     19 C16         5.6317    3.8628    1.6237 C.ar      1 <0>         0.0346
     20 C17         6.8183    4.5631    1.6108 C.ar      1 <0>        -0.1800
     21 C18         6.9801    5.6490    0.7660 C.ar      1 <0>        -0.0127
     22 C19         5.9546    6.0422   -0.0719 C.ar      1 <0>        -0.2374
     23 C20         4.7555    5.3473   -0.0766 C.ar      1 <0>         0.3224
     24 N3          7.9255    4.1528    2.5035 N.pl3     1 <0>         0.0677
     25 O2          7.7865    3.1982    3.2471 O.2       1 <0>        -0.2247
     26 O3          8.9757    4.7698    2.4943 O.3       1 <0>        -0.2226
     27 Br1        -4.5146   -0.4098    0.0444 Br        1 <0>        -0.0177
     28 H1         -7.4128    4.5511    0.1029 H         1 <0>         0.1404
     29 H2         -8.6229    2.4092    0.1025 H         1 <0>         0.1384
     30 H3         -7.3836    0.2850    0.0779 H         1 <0>         0.1408
     31 H4         -4.9540    4.5805    0.0871 H         1 <0>         0.1501
     32 H5         -0.0562    4.9494    0.0288 H         1 <0>         0.1413
     33 H6          2.1108    1.2480   -0.0110 H         1 <0>         0.1391
     34 H7          0.0021   -0.0041    0.0020 H         1 <0>         0.1334
     35 H8          3.1897    2.6600    1.4463 H         1 <0>         0.0925
     36 H9          5.5100    3.0168    2.2840 H         1 <0>         0.1307
     37 H10         7.9139    6.1915    0.7623 H         1 <0>         0.1262
     38 H11         6.0889    6.8902   -0.7272 H         1 <0>         0.1236
     39 O4          3.7492    5.7295   -0.9032 O.3       1 <0>        -0.6090
@<TRIPOS>BOND
     1    1    6 ar
     2    1    2 ar
     3    1   28 1
     4    2    3 ar
     5    2   29 1
     6    3    4 ar
     7    3   30 1
     8    4    5 ar
     9    4   27 1
    10    5    6 ar
    11    5    7 1
    12    6   31 1
    13    7   15 1
    14    7    8 2
    15    8    9 1
    16    9   14 ar
    17    9   10 ar
    18   10   11 ar
    19   10   32 1
    20   11   12 ar
    21   11   16 1
    22   12   13 ar
    23   12   33 1
    24   13   14 ar
    25   13   34 1
    26   14   15 1
    27   16   17 2
    28   17   18 1
    29   17   35 1
    30   18   23 ar
    31   18   19 ar
    32   19   20 ar
    33   19   36 1
    34   20   21 ar
    35   20   24 1
    36   21   22 ar
    37   21   37 1
    38   22   23 ar
    39   22   38 1
    40   23   39 1
    41   24   25 2
    42   24   26 1
@<TRIPOS>MOLECULE
ZINC16670993
   39    41     0     0     0
SMALL
USER_CHARGES
2-bromo-4-nitro-6-[(E)-(4-phenylazophenyl)iminomethyl]phenol
@<TRIPOS>ATOM
      1 C1          1.4181   14.4908   -0.7271 C.ar      1 <0>        -0.1054
      2 C2          0.5675   13.7997   -1.5722 C.ar      1 <0>        -0.1231
      3 C3          0.5734   12.4207   -1.5851 C.ar      1 <0>        -0.0690
      4 C4          1.4413   11.7211   -0.7419 C.ar      1 <0>         0.0601
      5 C5          2.2933   12.4261    0.1131 C.ar      1 <0>        -0.1089
      6 C6          2.2802   13.8050    0.1107 C.ar      1 <0>        -0.1233
      7 N1          1.4527   10.3546   -0.7492 N.2       1 <0>        -0.2467
      8 N2          2.2550    9.7122    0.0304 N.2       1 <0>        -0.1911
      9 C7          2.2664    8.3485    0.0231 C.ar      1 <0>        -0.0003
     10 C8          3.1370    7.6510    0.8691 C.ar      1 <0>        -0.0284
     11 C9          3.1479    6.2860    0.8618 C.ar      1 <0>        -0.1279
     12 C10         2.2887    5.5839    0.0093 C.ar      1 <0>         0.1586
     13 C11         1.4221    6.2807   -0.8403 C.ar      1 <0>        -0.1829
     14 C12         1.4072    7.6456   -0.8301 C.ar      1 <0>        -0.0615
     15 N3          2.2998    4.2185    0.0023 N.2       1 <0>        -0.4618
     16 C13         1.1749    3.5567    0.0095 C.2       1 <0>         0.2447
     17 C14         1.1869    2.0873    0.0019 C.ar      1 <0>        -0.2201
     18 C15        -0.0166    1.3733    0.0096 C.ar      1 <0>         0.0420
     19 C16         0.0021   -0.0041    0.0020 C.ar      1 <0>        -0.1757
     20 C17         1.2074   -0.6873   -0.0127 C.ar      1 <0>         0.0241
     21 C18         2.4039    0.0043   -0.0209 C.ar      1 <0>        -0.2056
     22 C19         2.4054    1.3912   -0.0139 C.ar      1 <0>         0.3360
     23 Br1         4.0412   -0.9416   -0.0409 Br        1 <0>        -0.0565
     24 N4         -1.2718   -0.7579    0.0101 N.pl3     1 <0>         0.0665
     25 O1         -2.3330   -0.1603    0.0235 O.2       1 <0>        -0.2140
     26 O2         -1.2587   -1.9758    0.0035 O.3       1 <0>        -0.2130
     27 H1          1.4088   15.5708   -0.7211 H         1 <0>         0.1248
     28 H2         -0.1027   14.3416   -2.2229 H         1 <0>         0.1299
     29 H3         -0.0912   11.8827   -2.2449 H         1 <0>         0.1331
     30 H4          2.9631   11.8922    0.7708 H         1 <0>         0.1353
     31 H5          2.9411   14.3512    0.7675 H         1 <0>         0.1251
     32 H6          3.8002    8.1929    1.5271 H         1 <0>         0.1357
     33 H7          3.8194    5.7479    1.5144 H         1 <0>         0.1395
     34 H8          0.7620    5.7384   -1.5011 H         1 <0>         0.1266
     35 H9          0.7355    8.1833   -1.4828 H         1 <0>         0.1348
     36 H10         0.2353    4.0890    0.0209 H         1 <0>         0.0995
     37 H11        -0.9587    1.9014    0.0169 H         1 <0>         0.1376
     38 H12         1.2119   -1.7673   -0.0182 H         1 <0>         0.1368
     39 O3          3.5795    2.0718   -0.0214 O.3       1 <0>        -0.5751
@<TRIPOS>BOND
     1    1    6 ar
     2    1    2 ar
     3    1   27 1
     4    2    3 ar
     5    2   28 1
     6    3    4 ar
     7    3   29 1
     8    4    5 ar
     9    4    7 1
    10    5    6 ar
    11    5   30 1
    12    6   31 1
    13    7    8 2
    14    8    9 1
    15    9   14 ar
    16    9   10 ar
    17   10   11 ar
    18   10   32 1
    19   11   12 ar
    20   11   33 1
    21   12   13 ar
    22   12   15 1
    23   13   14 ar
    24   13   34 1
    25   14   35 1
    26   15   16 2
    27   16   17 1
    28   16   36 1
    29   17   22 ar
    30   17   18 ar
    31   18   19 ar
    32   18   37 1
    33   19   20 ar
    34   19   24 1
    35   20   21 ar
    36   20   38 1
    37   21   22 ar
    38   21   23 1
    39   22   39 1
    40   24   25 2
    41   24   26 1
@<TRIPOS>MOLECULE
ZINC33652610
   39    41     0     0     0
SMALL
USER_CHARGES
4-(2-chlorophenoxy)-N-(4-nitrophenyl)benzenesulfonamide
@<TRIPOS>ATOM
      1 C1         -0.1474    4.6392    2.4806 C.ar      1 <0>        -0.0753
      2 C2         -0.4088    5.9879    2.3220 C.ar      1 <0>        -0.1426
      3 C3         -0.3282    6.5677    1.0696 C.ar      1 <0>        -0.0767
      4 C4          0.0147    5.7999   -0.0278 C.ar      1 <0>        -0.0653
      5 C5          0.2780    4.4458    0.1293 C.ar      1 <0>         0.1355
      6 C6          0.1909    3.8663    1.3868 C.ar      1 <0>        -0.1832
      7 O1          0.6148    3.6882   -0.9476 O.3       1 <0>        -0.2478
      8 C7          0.7442    2.3474   -0.7690 C.ar      1 <0>         0.1123
      9 C8         -0.3851    1.5500   -0.6498 C.ar      1 <0>        -0.1538
     10 C9         -0.2507    0.1871   -0.4687 C.ar      1 <0>        -0.0126
     11 C10         1.0077   -0.3825   -0.4059 C.ar      1 <0>        -0.6554
     12 C11         2.1346    0.4099   -0.5244 C.ar      1 <0>        -0.0107
     13 C12         2.0058    1.7732   -0.7060 C.ar      1 <0>        -0.1435
     14 S1          1.1755   -2.1210   -0.1737 S.o2      1 <0>         2.6043
     15 O2          2.5000   -2.3428    0.2907 O.2       1 <0>        -0.9835
     16 O3          0.0317   -2.5458    0.5547 O.2       1 <0>        -1.0274
     17 N1          1.0736   -2.8267   -1.6684 N.2       1 <0>        -1.0609
     18 C13        -0.1049   -2.7228   -2.4109 C.ar      1 <0>         0.2857
     19 C14        -1.3333   -2.9457   -1.8018 C.ar      1 <0>        -0.2262
     20 C15        -2.4969   -2.8365   -2.5376 C.ar      1 <0>        -0.0237
     21 C16        -2.4395   -2.5169   -3.8818 C.ar      1 <0>        -0.1245
     22 C17        -1.2179   -2.2999   -4.4925 C.ar      1 <0>        -0.0318
     23 C18        -0.0508   -2.4018   -3.7613 C.ar      1 <0>        -0.1630
     24 N2         -3.6883   -2.4062   -4.6684 N.pl3     1 <0>         0.0529
     25 O4         -3.6393   -2.1243   -5.8523 O.2       1 <0>        -0.2017
     26 O5         -4.7649   -2.5971   -4.1319 O.3       1 <0>        -0.2013
     27 Cl1         0.1165    6.5282   -1.6004 Cl        1 <0>        -0.0556
     28 H1         -0.2116    4.1890    3.4602 H         1 <0>         0.1337
     29 H2         -0.6768    6.5892    3.1781 H         1 <0>         0.1346
     30 H3         -0.5335    7.6210    0.9483 H         1 <0>         0.1406
     31 H4          0.3909    2.8122    1.5111 H         1 <0>         0.1392
     32 H5         -1.3682    1.9938   -0.7029 H         1 <0>         0.1330
     33 H6         -1.1293   -0.4340   -0.3758 H         1 <0>         0.1411
     34 H7          3.1163   -0.0374   -0.4746 H         1 <0>         0.1468
     35 H8          2.8864    2.3917   -0.7982 H         1 <0>         0.1360
     36 H9         -1.3786   -3.1998   -0.7531 H         1 <0>         0.1618
     37 H10        -3.4526   -3.0050   -2.0636 H         1 <0>         0.1359
     38 H11        -1.1766   -2.0507   -5.5426 H         1 <0>         0.1366
     39 H12         0.9029   -2.2319   -4.2388 H         1 <0>         0.1364
@<TRIPOS>BOND
     1    1    6 ar
     2    1    2 ar
     3    1   28 1
     4    2    3 ar
     5    2   29 1
     6    3    4 ar
     7    3   30 1
     8    4    5 ar
     9    4   27 1
    10    5    6 ar
    11    5    7 1
    12    6   31 1
    13    7    8 1
    14    8   13 ar
    15    8    9 ar
    16    9   10 ar
    17    9   32 1
    18   10   11 ar
    19   10   33 1
    20   11   12 ar
    21   11   14 1
    22   12   13 ar
    23   12   34 1
    24   13   35 1
    25   14   15 2
    26   14   16 2
    27   14   17 1
    28   17   18 1
    29   18   23 ar
    30   18   19 ar
    31   19   20 ar
    32   19   36 1
    33   20   21 ar
    34   20   37 1
    35   21   22 ar
    36   21   24 1
    37   22   23 ar
    38   22   38 1
    39   23   39 1
    40   24   25 2
    41   24   26 1
@<TRIPOS>MOLECULE
ZINC05376614
   40    43     0     0     0
SMALL
USER_CHARGES

@<TRIPOS>ATOM
      1 C1         -0.0378    1.3978   -0.4758 C.ar      1 <0>        -0.1141
      2 C2          1.1499    2.0656   -0.3252 C.ar      1 <0>        -0.0371
      3 C3          2.3538    1.3982   -0.4986 C.ar      1 <0>        -0.0316
      4 C4          2.3707    0.0501   -0.8258 C.ar      1 <0>        -0.0400
      5 C5          1.1951   -0.6377   -0.9810 C.ar      1 <0>        -0.1245
      6 C6         -0.0326    0.0294   -0.8073 C.ar      1 <0>         0.0741
      7 C7         -1.2549   -0.6717   -0.9652 C.2       1 <0>        -0.0590
      8 C8         -1.3739   -2.0442   -1.2908 C.2       1 <0>        -0.1385
      9 C9         -2.6994   -2.3371   -1.3509 C.2       1 <0>        -0.2000
     10 C10        -3.4122   -1.0889   -1.0489 C.2       1 <0>         0.0619
     11 O1         -2.4798   -0.1376   -0.8234 O.3       1 <0>        -0.0628
     12 C11        -4.7905   -0.9192   -0.9986 C.2       1 <0>        -0.0474
     13 C12        -5.3301    0.3353   -0.6963 C.2       1 <0>        -0.2167
     14 C13        -4.6216    1.6213   -0.4019 C.2       1 <0>         0.5100
     15 O2         -3.4081    1.7043   -0.3976 O.2       1 <0>        -0.5018
     16 N1         -5.3940    2.6561   -0.1486 N.2       1 <0>        -0.6955
     17 C14        -6.7102    2.5127   -0.1664 C.2       1 <0>         0.4127
     18 S1         -6.9452    0.7943   -0.5761 S.3       1 <0>        -0.0001
     19 N2         -7.6601    3.4567    0.0677 N.2       1 <0>        -0.5563
     20 C15        -7.2986    4.8001    0.1668 C.ar      1 <0>         0.1484
     21 C16        -6.1359    5.2557   -0.4455 C.ar      1 <0>        -0.1255
     22 C17        -5.7806    6.5857   -0.3458 C.ar      1 <0>        -0.1364
     23 C18        -6.5808    7.4666    0.3639 C.ar      1 <0>         0.0438
     24 C19        -7.7395    7.0153    0.9753 C.ar      1 <0>        -0.1401
     25 C20        -8.1031    5.6878    0.8732 C.ar      1 <0>        -0.1114
     26 F1         -6.2304    8.7678    0.4603 F         1 <0>        -0.1544
     27 N3          3.6303    2.1304   -0.3337 N.pl3     1 <0>        -0.0084
     28 O3          3.6199    3.4103   -0.0235 O.2       1 <0>        -0.1841
     29 O4          4.7759    1.5017   -0.4972 O.3       1 <0>        -0.1896
     30 H1         -0.9737    1.9183   -0.3363 H         1 <0>         0.1669
     31 H2          1.1485    3.1152   -0.0709 H         1 <0>         0.1552
     32 H3          3.3136   -0.4594   -0.9592 H         1 <0>         0.1551
     33 H4          1.2105   -1.6870   -1.2361 H         1 <0>         0.1503
     34 H5         -0.5595   -2.7329   -1.4608 H         1 <0>         0.1547
     35 H6         -3.1410   -3.2966   -1.5762 H         1 <0>         0.1592
     36 H7         -5.4450   -1.7561   -1.1928 H         1 <0>         0.1608
     37 H8         -5.5115    4.5694   -0.9982 H         1 <0>         0.1462
     38 H9         -4.8778    6.9400   -0.8211 H         1 <0>         0.1226
     39 H10        -8.3612    7.7040    1.5281 H         1 <0>         0.1262
     40 H11        -9.0090    5.3376    1.3456 H         1 <0>         0.1274
@<TRIPOS>BOND
     1    1    6 ar
     2    1    2 ar
     3    1   30 1
     4    2    3 ar
     5    2   31 1
     6    3    4 ar
     7    3   27 1
     8    4    5 ar
     9    4   32 1
    10    5    6 ar
    11    5   33 1
    12    6    7 1
    13    7   11 1
    14    7    8 2
    15    8    9 1
    16    8   34 1
    17    9   10 2
    18    9   35 1
    19   10   11 1
    20   10   12 1
    21   12   13 2
    22   12   36 1
    23   13   18 1
    24   13   14 1
    25   14   15 2
    26   14   16 1
    27   16   17 2
    28   17   18 1
    29   17   19 1
    30   19   20 1
    31   20   25 ar
    32   20   21 ar
    33   21   22 ar
    34   21   37 1
    35   22   23 ar
    36   22   38 1
    37   23   24 ar
    38   23   26 1
    39   24   25 ar
    40   24   39 1
    41   25   40 1
    42   27   28 2
    43   27   29 1
@<TRIPOS>MOLECULE
ZINC08821447
   39    41     0     0     0
SMALL
USER_CHARGES
2-[5-[[5-(3,4-dichlorophenyl)-2-furyl]methylene]-4-oxo-2-thioxo-thiazolidin-3-yl]-2-methyl-propanoic acid
@<TRIPOS>ATOM
      1 C1         -0.0800    3.9980    1.5541 C.3       1 <0>        -0.1499
      2 C2          0.6300    3.5655    0.2697 C.3       1 <0>         0.0944
      3 C3          2.0761    4.0649    0.2934 C.3       1 <0>        -0.1168
      4 C4         -0.0843    4.1514   -0.9209 C.2       1 <0>         0.4808
      5 O1         -0.7385    5.1596   -0.7968 O.co2     1 <0>        -0.6087
      6 N1          0.6198    2.1036    0.1745 N.am      1 <0>        -0.4824
      7 C5          1.7631    1.4413    0.2040 C.2       1 <0>         0.5294
      8 O2          2.8253    2.0277    0.3100 O.2       1 <0>        -0.4381
      9 C6          1.7155    0.0170    0.1085 C.2       1 <0>        -0.2139
     10 C7          2.7370   -0.8885    0.1151 C.2       1 <0>         0.0779
     11 C8          4.0747   -0.4437    0.0464 C.2       1 <0>        -0.0084
     12 C9          5.2024   -1.2346    0.1788 C.2       1 <0>        -0.1462
     13 C10         6.3057   -0.3881    0.0439 C.2       1 <0>        -0.1965
     14 C11         5.8230    0.8733   -0.1634 C.2       1 <0>         0.0513
     15 O3          4.4783    0.8267   -0.1657 O.3       1 <0>        -0.0988
     16 C12         6.6413    2.0855   -0.3589 C.ar      1 <0>        -0.0051
     17 C13         8.0361    2.0017   -0.3352 C.ar      1 <0>        -0.0818
     18 C14         8.7956    3.1369   -0.5237 C.ar      1 <0>        -0.0988
     19 C15         8.1794    4.3609   -0.7253 C.ar      1 <0>        -0.0261
     20 C16         6.7965    4.4524   -0.7443 C.ar      1 <0>        -0.0288
     21 C17         6.0251    3.3225   -0.5626 C.ar      1 <0>        -0.0712
     22 Cl1         6.0334    5.9910   -0.9977 Cl        1 <0>        -0.0344
     23 Cl2         9.1432    5.7863   -0.9557 Cl        1 <0>        -0.0468
     24 S1         -0.0462   -0.2570   -0.0212 S.3       1 <0>         0.0185
     25 C18        -0.5587    1.4524    0.0574 C.2       1 <0>         0.2987
     26 S2         -2.1414    2.1019   -0.0069 S.2       1 <0>        -0.2972
     27 H1          0.4845    3.6459    2.4175 H         1 <0>         0.0421
     28 H2         -0.1479    5.0855    1.5832 H         1 <0>         0.0858
     29 H3         -1.0825    3.5706    1.5766 H         1 <0>         0.0788
     30 H4          2.5819    3.7568   -0.6216 H         1 <0>         0.0679
     31 H5          2.0837    5.1525    0.3642 H         1 <0>         0.0527
     32 H6          2.5927    3.6411    1.1545 H         1 <0>         0.0724
     33 H7          2.5216   -1.9452    0.1729 H         1 <0>         0.1779
     34 H8          5.2253   -2.3002    0.3531 H         1 <0>         0.1620
     35 H9          7.3453   -0.6766    0.0946 H         1 <0>         0.1568
     36 H10         8.5182    1.0489   -0.1737 H         1 <0>         0.1449
     37 H11         9.8736    3.0723   -0.5100 H         1 <0>         0.1487
     38 H12         4.9476    3.3945   -0.5775 H         1 <0>         0.1588
     39 O4          0.0063    3.5533   -2.1191 O.co2     1 <0>        -0.7497
@<TRIPOS>BOND
     1    1    2 1
     2    1   27 1
     3    1   28 1
     4    1   29 1
     5    2    3 1
     6    2    4 1
     7    2    6 1
     8    3   30 1
     9    3   31 1
    10    3   32 1
    11    4    5 2
    12    4   39 1
    13    6   25 1
    14    6    7 am
    15    7    8 2
    16    7    9 1
    17    9   10 2
    18    9   24 1
    19   10   11 1
    20   10   33 1
    21   11   15 1
    22   11   12 2
    23   12   13 1
    24   12   34 1
    25   13   14 2
    26   13   35 1
    27   14   15 1
    28   14   16 1
    29   16   21 ar
    30   16   17 ar
    31   17   18 ar
    32   17   36 1
    33   18   19 ar
    34   18   37 1
    35   19   20 ar
    36   19   23 1
    37   20   21 ar
    38   20   22 1
    39   21   38 1
    40   24   25 1
    41   25   26 2
@<TRIPOS>MOLECULE
ZINC16905821
   36    38     0     0     0
SMALL
USER_CHARGES
2-[(E)-[3-[4-chloro-2-(trifluoromethyl)phenyl]-4-oxo-2-thioxo-thiazolidin-5-ylidene]methyl]benzoic acid
@<TRIPOS>ATOM
      1 C1         -3.1116    3.1632   -1.5628 C.ar      1 <0>        -0.1312
      2 C2         -2.4432    3.9756   -0.6605 C.ar      1 <0>        -0.1067
      3 C3         -1.7614    3.4257    0.4063 C.ar      1 <0>        -0.0909
      4 C4         -1.7321    2.0422    0.5770 C.ar      1 <0>        -0.0718
      5 C5         -2.4130    1.2135   -0.3413 C.ar      1 <0>        -0.0920
      6 C6         -3.1015    1.7925   -1.4112 C.ar      1 <0>        -0.0595
      7 C7         -2.3984   -0.2445   -0.1735 C.2       1 <0>         0.1814
      8 C8         -3.5337   -0.9615   -0.3698 C.2       1 <0>        -0.2976
      9 C9         -4.9187   -0.4919   -0.6017 C.2       1 <0>         0.5398
     10 O1         -5.1948    0.6922   -0.6421 O.2       1 <0>        -0.4350
     11 N1         -5.8392   -1.4270   -0.7670 N.am      1 <0>        -0.4972
     12 C10        -5.5297   -2.7383   -0.7147 C.2       1 <0>         0.2779
     13 S1         -6.5726   -4.0840   -0.8948 S.2       1 <0>        -0.3521
     14 S2         -3.7700   -2.7330   -0.4119 S.3       1 <0>         0.1048
     15 C11        -7.1685   -1.0461   -0.9959 C.ar      1 <0>         0.1652
     16 C12        -8.0322   -0.8577    0.0750 C.ar      1 <0>        -0.0739
     17 C13        -9.3414   -0.4825   -0.1532 C.ar      1 <0>        -0.0647
     18 C14        -9.7929   -0.2942   -1.4479 C.ar      1 <0>        -0.0225
     19 C15        -8.9343   -0.4814   -2.5166 C.ar      1 <0>        -0.0557
     20 C16        -7.6222   -0.8511   -2.2933 C.ar      1 <0>        -0.1444
     21 C17        -6.6858   -1.0488   -3.4574 C.3       1 <0>         0.5050
     22 F1         -7.3677   -0.7959   -4.6525 F         1 <0>        -0.1699
     23 F2         -5.6053   -0.1676   -3.3416 F         1 <0>        -0.1679
     24 F3         -6.2151   -2.3662   -3.4588 F         1 <0>        -0.1625
     25 Cl1       -11.4395    0.1769   -1.7315 Cl        1 <0>        -0.0439
     26 C18        -1.0004    1.4491    1.7117 C.2       1 <0>         0.4872
     27 O2         -1.0615    0.2528    1.9153 O.co2     1 <0>        -0.6240
     28 H1         -3.6447    3.6069   -2.3906 H         1 <0>         0.1197
     29 H2         -2.4598    5.0476   -0.7905 H         1 <0>         0.1216
     30 H3         -1.2473    4.0671    1.1068 H         1 <0>         0.1372
     31 H4         -3.6256    1.1668   -2.1184 H         1 <0>         0.1176
     32 H5         -1.4841   -0.7468    0.1062 H         1 <0>         0.1768
     33 H6         -7.6804   -1.0048    1.0854 H         1 <0>         0.1511
     34 H7        -10.0134   -0.3354    0.6794 H         1 <0>         0.1558
     35 H8         -9.2890   -0.3342   -3.5260 H         1 <0>         0.1589
     36 O3         -0.2595    2.2332    2.5194 O.co2     1 <0>        -0.7367
@<TRIPOS>BOND
     1    1    6 ar
     2    1    2 ar
     3    1   28 1
     4    2    3 ar
     5    2   29 1
     6    3    4 ar
     7    3   30 1
     8    4    5 ar
     9    4   26 1
    10    5    6 ar
    11    5    7 1
    12    6   31 1
    13    7    8 2
    14    7   32 1
    15    8   14 1
    16    8    9 1
    17    9   10 2
    18    9   11 am
    19   11   12 1
    20   11   15 1
    21   12   13 2
    22   12   14 1
    23   15   20 ar
    24   15   16 ar
    25   16   17 ar
    26   16   33 1
    27   17   18 ar
    28   17   34 1
    29   18   19 ar
    30   18   25 1
    31   19   20 ar
    32   19   35 1
    33   20   21 1
    34   21   22 1
    35   21   23 1
    36   21   24 1
    37   26   27 2
    38   26   36 1
@<TRIPOS>MOLECULE
ZINC35551061
   28    29     0     0     0
SMALL
USER_CHARGES

@<TRIPOS>ATOM
      1 C1         -0.0138    1.3817    0.0587 C.ar      1 <0>        -0.1672
      2 C2          0.0015   -0.0003    0.0049 C.ar      1 <0>        -0.0703
      3 C3          1.2049   -0.6784   -0.0269 C.ar      1 <0>        -0.0640
      4 C4          2.4008    0.0304   -0.0047 C.ar      1 <0>         0.2867
      5 C5          2.3808    1.4176    0.0493 C.ar      1 <0>        -0.2060
      6 C6          1.1738    2.0891    0.0809 C.ar      1 <0>        -0.1242
      7 C7          1.1518    3.5948    0.1391 C.3       1 <0>         0.5052
      8 F1         -0.1739    4.0413    0.1620 F         1 <0>        -0.1822
      9 F2          1.8093    4.0265    1.2960 F         1 <0>        -0.1789
     10 F3          1.7995    4.1145   -0.9868 F         1 <0>        -0.1786
     11 N1          3.6200   -0.6519   -0.0363 N.2       1 <0>        -1.0645
     12 S1          5.0381    0.1926   -0.1709 S.o2      1 <0>         2.6044
     13 O1          4.9858    0.8788   -1.4141 O.2       1 <0>        -1.0122
     14 O2          5.2272    0.8683    1.0648 O.2       1 <0>        -1.0116
     15 C8          6.3380   -0.9896   -0.3025 C.ar      1 <0>        -0.6646
     16 C9          6.9679   -1.4698    0.8361 C.ar      1 <0>         0.0645
     17 C10         7.9856   -2.3991    0.6852 C.ar      1 <0>        -0.1599
     18 C11         8.3366   -2.8137   -0.5887 C.ar      1 <0>         0.2347
     19 N2          7.7146   -2.3340   -1.6488 N.ar      1 <0>        -0.4816
     20 C12         6.7382   -1.4536   -1.5406 C.ar      1 <0>         0.2279
     21 Cl1         9.6091   -3.9767   -0.7930 Cl        1 <0>        -0.0063
     22 Br1         8.8833   -3.0910    2.1990 Br        1 <0>        -0.0111
     23 Cl2         1.2237   -2.4130   -0.0938 Cl        1 <0>        -0.0736
     24 H1         -0.9557    1.9097    0.0790 H         1 <0>         0.1294
     25 H2         -0.9281   -0.5499   -0.0119 H         1 <0>         0.1297
     26 H3          3.3080    1.9712    0.0669 H         1 <0>         0.1156
     27 H4          6.6727   -1.1276    1.8171 H         1 <0>         0.1693
     28 H5          6.2491   -1.0874   -2.4311 H         1 <0>         0.1895
@<TRIPOS>BOND
     1    1    6 ar
     2    1    2 ar
     3    1   24 1
     4    2    3 ar
     5    2   25 1
     6    3    4 ar
     7    3   23 1
     8    4    5 ar
     9    4   11 1
    10    5    6 ar
    11    5   26 1
    12    6    7 1
    13    7    8 1
    14    7    9 1
    15    7   10 1
    16   11   12 1
    17   12   13 2
    18   12   14 2
    19   12   15 1
    20   15   20 ar
    21   15   16 ar
    22   16   17 ar
    23   16   27 1
    24   17   18 ar
    25   17   22 1
    26   18   19 ar
    27   18   21 1
    28   19   20 ar
    29   20   28 1
@<TRIPOS>MOLECULE
ZINC39556283
   41    44     0     0     0
SMALL
USER_CHARGES

@<TRIPOS>ATOM
      1 C1         -0.0178    1.4608    0.0101 C.3       1 <0>         0.0944
      2 N1          0.0021   -0.0041    0.0020 N.am      1 <0>        -0.5764
      3 C2         -1.0828   -0.8092    0.0026 C.2       1 <0>         0.5115
      4 O1         -2.2529   -0.4696    0.0095 O.2       1 <0>        -0.5192
      5 C3         -0.5550   -2.1804   -0.0072 C.2       1 <0>        -0.0250
      6 C4         -1.2850   -3.3522   -0.0106 C.2       1 <0>        -0.0004
      7 C5         -0.6181   -4.6023   -0.0204 C.2       1 <0>        -0.1457
      8 C6          0.7446   -4.8130   -0.0214 C.2       1 <0>         0.1170
      9 N2          0.9960   -6.1459   -0.0316 N.pl3     1 <0>        -0.4692
     10 C7         -0.1844   -6.8614   -0.0378 C.ar      1 <0>         0.1030
     11 C8         -1.2431   -5.9395   -0.0252 C.ar      1 <0>        -0.0805
     12 C9         -2.5607   -6.3882   -0.0229 C.ar      1 <0>        -0.0388
     13 C10        -2.8209   -7.7425   -0.0297 C.ar      1 <0>        -0.1156
     14 C11        -1.7756   -8.6553   -0.0387 C.ar      1 <0>        -0.0840
     15 C12        -0.4669   -8.2236   -0.0492 C.ar      1 <0>        -0.1184
     16 Br1        -4.6089   -8.3581   -0.0260 Br        1 <0>        -0.0636
     17 C13         2.3339   -6.7429   -0.0360 C.3       1 <0>         0.1488
     18 C14         2.7426   -7.0492   -1.4538 C.ar      1 <0>        -0.1262
     19 C15         2.4387   -8.2777   -2.0101 C.ar      1 <0>        -0.0708
     20 C16         2.8126   -8.5596   -3.3103 C.ar      1 <0>        -0.1577
     21 C17         3.4919   -7.6110   -4.0559 C.ar      1 <0>         0.1050
     22 C18         3.7957   -6.3809   -3.4976 C.ar      1 <0>        -0.1521
     23 C19         3.4161   -6.0993   -2.1990 C.ar      1 <0>        -0.0619
     24 F1          3.8583   -7.8856   -5.3269 F         1 <0>        -0.1399
     25 N3          0.8081   -2.0585   -0.0129 N.2       1 <0>        -0.5570
     26 C20         1.1251   -0.7912   -0.0134 C.2       1 <0>         0.4974
     27 S1          2.7759   -0.1751   -0.0266 S.3       1 <0>        -0.7751
     28 H1          1.0048    1.8381    0.0023 H         1 <0>         0.1028
     29 H2         -0.5450    1.8219   -0.8730 H         1 <0>         0.0590
     30 H3         -0.5280    1.8123    0.9069 H         1 <0>         0.0592
     31 H4         -2.3644   -3.3160   -0.0058 H         1 <0>         0.1299
     32 H5          1.4956   -4.0368   -0.0155 H         1 <0>         0.2104
     33 H6         -3.3754   -5.6792   -0.0155 H         1 <0>         0.1320
     34 H7         -1.9899   -9.7138   -0.0436 H         1 <0>         0.1305
     35 H8          0.3390   -8.9425   -0.0544 H         1 <0>         0.1230
     36 H9          3.0450   -6.0439    0.4042 H         1 <0>         0.1092
     37 H10         2.3224   -7.6644    0.5460 H         1 <0>         0.0970
     38 H11         1.9092   -9.0176   -1.4282 H         1 <0>         0.1309
     39 H12         2.5754   -9.5196   -3.7446 H         1 <0>         0.1355
     40 H13         4.3257   -5.6403   -4.0781 H         1 <0>         0.1392
     41 H14         3.6490   -5.1383   -1.7648 H         1 <0>         0.1419
@<TRIPOS>BOND
     1    1    2 1
     2    1   28 1
     3    1   29 1
     4    1   30 1
     5    2   26 1
     6    2    3 am
     7    3    4 2
     8    3    5 1
     9    5    6 2
    10    5   25 1
    11    6    7 1
    12    6   31 1
    13    7   11 1
    14    7    8 2
    15    8    9 1
    16    8   32 1
    17    9   10 1
    18    9   17 1
    19   10   15 ar
    20   10   11 ar
    21   11   12 ar
    22   12   13 ar
    23   12   33 1
    24   13   14 ar
    25   13   16 1
    26   14   15 ar
    27   14   34 1
    28   15   35 1
    29   17   18 1
    30   17   36 1
    31   17   37 1
    32   18   23 ar
    33   18   19 ar
    34   19   20 ar
    35   19   38 1
    36   20   21 ar
    37   20   39 1
    38   21   22 ar
    39   21   24 1
    40   22   23 ar
    41   22   40 1
    42   23   41 1
    43   25   26 2
    44   26   27 1
