@<TRIPOS>MOLECULE
2AA2-AS4
 54 58 0 0 0
SMALL
SF_CHARGES


@<TRIPOS>ATOM
1    C        19.8700   73.9850   20.2970  C.3        1 SUBUNIT     -0.0224
2    C        17.4550   73.7690   20.9300  C.3        1 SUBUNIT     -0.0815
3    C        18.9890   72.9270   22.5790  C.3        1 SUBUNIT      0.4919
4    C        18.6700   70.4240   19.0570  C.3        1 SUBUNIT      0.0309
5    C        19.7270   70.1490   17.9400  C.2        1 SUBUNIT     -0.0590
6    C        19.4650   69.3550   16.8630  C.2        1 SUBUNIT     -0.1156
7    C        18.0970   68.6670   16.6740  C.2        1 SUBUNIT      0.4830
8    C        19.0190   69.4610   20.2520  C.3        1 SUBUNIT     -0.1067
9    C        20.7130   75.7070   21.8680  C.3        1 SUBUNIT     -0.0674
10   C        19.1660   75.5790   21.9050  C.3        1 SUBUNIT     -0.0292
11   C        18.4750   76.1360   23.2040  C.2        1 SUBUNIT      0.4423
12   C        16.9640   76.3730   23.1630  C.3        1 SUBUNIT      0.1966
13   C        21.1680   74.6940   20.7900  C.3        1 SUBUNIT     -0.0687
14   C        18.8690   74.0950   21.5270  C.3        1 SUBUNIT     -0.0269
15   C        20.0500   72.5000   19.8510  C.3        1 SUBUNIT     -0.0313
16   C        18.6260   71.9600   19.5140  C.3        1 SUBUNIT     -0.0516
17   C        17.6310   72.2430   20.7480  C.3        1 SUBUNIT      0.2307
18   O        18.1950   71.8110   22.0140  O.3        1 SUBUNIT     -0.4592
19   O        18.3890   73.2210   23.8400  O.3        1 SUBUNIT     -0.5748
20   O        17.7730   68.1020   15.6360  O.2        1 SUBUNIT     -0.5365
21   C        17.1160   68.6840   17.8750  C.3        1 SUBUNIT     -0.0654
22   C        17.2540   70.1010   18.4590  C.3        1 SUBUNIT     -0.0726
23   C        21.1140   70.8000   18.1620  C.3        1 SUBUNIT     -0.0446
24   C        20.9910   72.2890   18.6040  C.3        1 SUBUNIT     -0.0690
25   O        19.1350   76.3620   24.1890  O.2        1 SUBUNIT     -0.5324
26   O        16.4710   76.4530   24.5030  O.3        1 SUBUNIT     -0.5611
27   H        19.5192   74.4674   19.3787  H          1 SUBUNIT      0.0475
28   H        16.6450   74.0083   21.6269  H          1 SUBUNIT      0.0482
29   H        17.2795   74.2783   19.9767  H          1 SUBUNIT      0.0482
30   H        20.0394   72.7044   22.7939  H          1 SUBUNIT      0.0061
31   H        20.2751   69.2459   16.1632  H          1 SUBUNIT      0.0868
32   H        18.9730   68.4131   19.9378  H          1 SUBUNIT      0.0447
33   H        18.3170   69.5947   21.0816  H          1 SUBUNIT      0.0447
34   H        20.0281   69.6549   20.6304  H          1 SUBUNIT      0.0447
35   H        21.0099   76.7238   21.5905  H          1 SUBUNIT      0.0399
36   H        21.1449   75.4530   22.8416  H          1 SUBUNIT      0.0399
37   H        18.6968   76.2450   21.1733  H          1 SUBUNIT      0.0338
38   H        16.7388   77.3125   22.6476  H          1 SUBUNIT      0.0158
39   H        16.4616   75.5457   22.6511  H          1 SUBUNIT      0.0158
40   H        21.8612   73.9651   21.2227  H          1 SUBUNIT      0.0366
41   H        21.6571   75.2161   19.9610  H          1 SUBUNIT      0.0366
42   H        20.5349   71.9660   20.6748  H          1 SUBUNIT      0.0340
43   H        18.2453   72.5100   18.6471  H          1 SUBUNIT      0.0338
44   H        16.6974   71.6997   20.5686  H          1 SUBUNIT      0.0145
45   H        17.4351   73.2405   23.7335  H          1 SUBUNIT      0.3727
46   H        16.0891   68.5021   17.5413  H          1 SUBUNIT      0.0330
47   H        17.3976   67.9308   18.6183  H          1 SUBUNIT      0.0330
48   H        16.5084   70.2120   19.2532  H          1 SUBUNIT      0.0360
49   H        17.0440   70.8173   17.6578  H          1 SUBUNIT      0.0360
50   H        21.6456   70.2410   18.9391  H          1 SUBUNIT      0.0339
51   H        21.6798   70.7525   17.2257  H          1 SUBUNIT      0.0339
52   H        20.5907   72.8649   17.7631  H          1 SUBUNIT      0.0375
53   H        21.9914   72.6564   18.8554  H          1 SUBUNIT      0.0375
54   H        17.1333   76.8775   25.0532  H          1 SUBUNIT      0.3755
@<TRIPOS>BOND
     1    1   13 1
     2    1   14 1
     3    1   15 1
     4    2   14 1
     5    2   17 1
     6    3   14 1
     7    3   18 1
     8    3   19 1
     9    4    5 1
    10    4    8 1
    11    4   16 1
    12    4   22 1
    13    5    6 2
    14    5   23 1
    15    6    7 1
    16    7   20 2
    17    7   21 1
    18    9   10 1
    19    9   13 1
    20   10   11 1
    21   10   14 1
    22   11   12 1
    23   11   25 2
    24   12   26 1
    25   15   16 1
    26   15   24 1
    27   16   17 1
    28   17   18 1
    29   21   22 1
    30   23   24 1
    31    1   27 1
    32    2   28 1
    33    2   29 1
    34    3   30 1
    35    6   31 1
    36    8   32 1
    37    8   33 1
    38    8   34 1
    39    9   35 1
    40    9   36 1
    41   10   37 1
    42   12   38 1
    43   12   39 1
    44   13   40 1
    45   13   41 1
    46   15   42 1
    47   16   43 1
    48   17   44 1
    49   19   45 1
    50   21   46 1
    51   21   47 1
    52   22   48 1
    53   22   49 1
    54   23   50 1
    55   23   51 1
    56   24   52 1
    57   24   53 1
    58   26   54 1
