@<TRIPOS>MOLECULE
CHEMBL51927
   46    49     0     0     0
SMALL
USER_CHARGES

@<TRIPOS>ATOM
      1 C1          0.3704    1.4814   -0.0404 C.3       1 <0>        -0.0948
      2 C2          0.1856   -0.0141   -0.0219 C.ar      1 <0>        -0.1449
      3 C3         -0.0987   -0.6998   -1.1966 C.ar      1 <0>        -0.0140
      4 C4         -0.2651   -2.1509   -1.1022 C.ar      1 <0>        -0.0943
      5 C5         -0.5521   -2.9291   -2.2281 C.ar      1 <0>        -0.0902
      6 C6         -0.6989   -4.2802   -2.0940 C.ar      1 <0>         0.0675
      7 C7         -0.5662   -4.8921   -0.8470 C.ar      1 <0>        -0.1261
      8 C8         -0.2876   -4.1621    0.2669 C.ar      1 <0>        -0.0849
      9 C9         -0.1287   -2.7679    0.1664 C.ar      1 <0>         0.1548
     10 N1          0.1460   -2.0262    1.2423 N.ar      1 <0>        -0.5592
     11 C10         0.3045   -0.7253    1.1775 C.ar      1 <0>         0.3670
     12 O1          0.5878   -0.0442    2.3155 O.3       1 <0>        -0.2967
     13 C11         0.7005   -0.8082    3.5178 C.3       1 <0>         0.1114
     14 C12         1.0161    0.1111    4.6694 C.ar      1 <0>        -0.0879
     15 C13         2.3328    0.3894    4.9899 C.ar      1 <0>        -0.0911
     16 C14         2.6297    1.2322    6.0455 C.ar      1 <0>        -0.1201
     17 C15         1.6123    1.8009    6.7851 C.ar      1 <0>        -0.1028
     18 C16         0.2845    1.5244    6.4665 C.ar      1 <0>        -0.0525
     19 C17        -0.0089    0.6783    5.3988 C.ar      1 <0>        -0.0838
     20 C18        -0.8134    2.1325    7.2583 C.ar      1 <0>        -0.0411
     21 C19        -2.1413    1.8514    6.9433 C.ar      1 <0>        -0.1105
     22 C20        -3.1585    2.4193    7.6833 C.ar      1 <0>        -0.1162
     23 C21        -2.8617    3.2661    8.7360 C.ar      1 <0>        -0.1217
     24 C22        -1.5453    3.5485    9.0531 C.ar      1 <0>        -0.1188
     25 C23        -0.5201    2.9820    8.3231 C.ar      1 <0>        -0.1126
     26 F1         -0.9763   -5.0329   -3.1811 F         1 <0>        -0.1434
     27 C24        -0.2280    0.0062   -2.4865 C.2       1 <0>         0.5341
     28 O2          0.7659    0.2327   -3.1619 O.co2     1 <0>        -0.6667
     29 O3         -1.3291    0.3646   -2.8797 O.co2     1 <0>        -0.6678
     30 H1          1.4162    1.7158   -0.2386 H         1 <0>         0.0692
     31 H2         -0.2536    1.9149   -0.8219 H         1 <0>         0.0735
     32 H3          0.0821    1.8951    0.9260 H         1 <0>         0.0668
     33 H4         -0.6575   -2.4645   -3.1973 H         1 <0>         0.1435
     34 H5         -0.6868   -5.9622   -0.7646 H         1 <0>         0.1366
     35 H6         -0.1887   -4.6512    1.2248 H         1 <0>         0.1394
     36 H7         -0.2408   -1.3227    3.7110 H         1 <0>         0.0751
     37 H8          1.4996   -1.5415    3.4087 H         1 <0>         0.0762
     38 H9          3.1319   -0.0534    4.4138 H         1 <0>         0.1265
     39 H10         3.6593    1.4456    6.2918 H         1 <0>         0.1270
     40 H11         1.8452    2.4586    7.6094 H         1 <0>         0.1255
     41 H12        -1.0365    0.4636    5.1452 H         1 <0>         0.1275
     42 H13        -2.3741    1.1907    6.1213 H         1 <0>         0.1265
     43 H14        -4.1881    2.2024    7.4398 H         1 <0>         0.1244
     44 H15        -3.6607    3.7086    9.3123 H         1 <0>         0.1216
     45 H16        -1.3192    4.2106    9.8759 H         1 <0>         0.1229
     46 H17         0.5075    3.1996    8.5743 H         1 <0>         0.1248
@<TRIPOS>BOND
     1    1    2 1
     2    1   30 1
     3    1   31 1
     4    1   32 1
     5    2   11 ar
     6    2    3 ar
     7    3    4 ar
     8    3   27 1
     9    4    9 ar
    10    4    5 ar
    11    5    6 ar
    12    5   33 1
    13    6    7 ar
    14    6   26 1
    15    7    8 ar
    16    7   34 1
    17    8    9 ar
    18    8   35 1
    19    9   10 ar
    20   10   11 ar
    21   11   12 1
    22   12   13 1
    23   13   14 1
    24   13   36 1
    25   13   37 1
    26   14   19 ar
    27   14   15 ar
    28   15   16 ar
    29   15   38 1
    30   16   17 ar
    31   16   39 1
    32   17   18 ar
    33   17   40 1
    34   18   19 ar
    35   18   20 1
    36   19   41 1
    37   20   25 ar
    38   20   21 ar
    39   21   22 ar
    40   21   42 1
    41   22   23 ar
    42   22   43 1
    43   23   24 ar
    44   23   44 1
    45   24   25 ar
    46   24   45 1
    47   25   46 1
    48   27   28 2
    49   27   29 1
@<TRIPOS>MOLECULE
CHEMBL48531
   52    56     0     0     0
SMALL
USER_CHARGES

@<TRIPOS>ATOM
      1 C1         -2.4920   -0.6326    1.2874 C.3       1 <0>        -0.0981
      2 C2         -1.2028   -1.0462    0.6257 C.ar      1 <0>        -0.1294
      3 C3         -1.2194   -1.9078   -0.4634 C.ar      1 <0>        -0.0324
      4 C4          0.0709   -2.2663   -1.0553 C.ar      1 <0>        -0.0658
      5 C5          0.1569   -3.1263   -2.1544 C.ar      1 <0>        -0.1029
      6 C6          1.3813   -3.4341   -2.6756 C.ar      1 <0>         0.0850
      7 C7          2.5462   -2.9004   -2.1235 C.ar      1 <0>        -0.1351
      8 C8          2.4952   -2.0610   -1.0537 C.ar      1 <0>        -0.0678
      9 C9          1.2512   -1.7213   -0.4914 C.ar      1 <0>         0.1264
     10 N1          1.1711   -0.8992    0.5580 N.ar      1 <0>        -0.4925
     11 C10         0.0232   -0.5604    1.1002 C.ar      1 <0>         0.4038
     12 N2          0.0252    0.3049    2.1863 N.pl3     1 <0>        -0.5678
     13 C11        -0.1118    1.7612    2.0998 C.3       1 <0>         0.1259
     14 C12        -0.0503    2.2582    3.5534 C.3       1 <0>        -0.0718
     15 C13         0.1226    1.0020    4.3773 C.ar      1 <0>        -0.1834
     16 C14         0.1522   -0.0863    3.5214 C.ar      1 <0>         0.2510
     17 C15         0.3002   -1.3681    4.0556 C.ar      1 <0>        -0.1982
     18 C16         0.4119   -1.5507    5.4231 C.ar      1 <0>         0.1721
     19 C17         0.3776   -0.4608    6.2780 C.ar      1 <0>        -0.2422
     20 C18         0.2392    0.8220    5.7533 C.ar      1 <0>         0.0392
     21 C19         0.2007    1.9952    6.6613 C.ar      1 <0>        -0.0378
     22 C20         1.0089    3.1017    6.4087 C.ar      1 <0>        -0.1031
     23 C21         0.9687    4.1903    7.2562 C.ar      1 <0>        -0.1202
     24 C22         0.1285    4.1840    8.3549 C.ar      1 <0>        -0.1221
     25 C23        -0.6760    3.0882    8.6104 C.ar      1 <0>        -0.1206
     26 C24        -0.6481    1.9966    7.7663 C.ar      1 <0>        -0.1053
     27 O1          0.5554   -2.8038    5.9293 O.3       1 <0>        -0.3146
     28 C25         0.6652   -2.9213    7.3492 C.3       1 <0>         0.0294
     29 F1          1.4654   -4.2650   -3.7375 F         1 <0>        -0.1405
     30 C26        -2.4862   -2.4408   -1.0020 C.2       1 <0>         0.5333
     31 O2         -3.0745   -1.8392   -1.8894 O.co2     1 <0>        -0.6687
     32 O3         -2.9473   -3.4839   -0.5609 O.co2     1 <0>        -0.6674
     33 H1         -2.8490    0.2949    0.8396 H         1 <0>         0.0680
     34 H2         -3.2389   -1.4142    1.1484 H         1 <0>         0.0768
     35 H3         -2.3206   -0.4792    2.3529 H         1 <0>         0.0640
     36 H4         -0.7391   -3.5450   -2.5882 H         1 <0>         0.1453
     37 H5          3.5037   -3.1579   -2.5517 H         1 <0>         0.1389
     38 H6          3.4063   -1.6565   -0.6382 H         1 <0>         0.1416
     39 H7          0.7086    2.1846    1.5204 H         1 <0>         0.0721
     40 H8         -1.0691    2.0250    1.6501 H         1 <0>         0.0750
     41 H9          0.8014    2.9242    3.6920 H         1 <0>         0.0830
     42 H10        -0.9776    2.7644    3.8219 H         1 <0>         0.0851
     43 H11         0.3272   -2.2234    3.3967 H         1 <0>         0.1249
     44 H12         0.4642   -0.6046    7.3448 H         1 <0>         0.1286
     45 H13         1.6659    3.1074    5.5515 H         1 <0>         0.1247
     46 H14         1.5948    5.0485    7.0613 H         1 <0>         0.1221
     47 H15         0.1007    5.0377    9.0159 H         1 <0>         0.1197
     48 H16        -1.3300    3.0884    9.4698 H         1 <0>         0.1218
     49 H17        -1.2799    1.1434    7.9641 H         1 <0>         0.1234
     50 H18         1.5369   -2.3647    7.6935 H         1 <0>         0.0542
     51 H19        -0.2322   -2.5171    7.8177 H         1 <0>         0.0549
     52 H20         0.7747   -3.9715    7.6195 H         1 <0>         0.0977
@<TRIPOS>BOND
     1    1    2 1
     2    1   33 1
     3    1   34 1
     4    1   35 1
     5    2   11 ar
     6    2    3 ar
     7    3    4 ar
     8    3   30 1
     9    4    9 ar
    10    4    5 ar
    11    5    6 ar
    12    5   36 1
    13    6    7 ar
    14    6   29 1
    15    7    8 ar
    16    7   37 1
    17    8    9 ar
    18    8   38 1
    19    9   10 ar
    20   10   11 ar
    21   11   12 1
    22   12   16 1
    23   12   13 1
    24   13   14 1
    25   13   39 1
    26   13   40 1
    27   14   15 1
    28   14   41 1
    29   14   42 1
    30   15   20 ar
    31   15   16 ar
    32   16   17 ar
    33   17   18 ar
    34   17   43 1
    35   18   19 ar
    36   18   27 1
    37   19   20 ar
    38   19   44 1
    39   20   21 1
    40   21   26 ar
    41   21   22 ar
    42   22   23 ar
    43   22   45 1
    44   23   24 ar
    45   23   46 1
    46   24   25 ar
    47   24   47 1
    48   25   26 ar
    49   25   48 1
    50   26   49 1
    51   27   28 1
    52   28   50 1
    53   28   51 1
    54   28   52 1
    55   30   31 2
    56   30   32 1
@<TRIPOS>MOLECULE
CHEMBL48531__1
   53    57     0     0     0
SMALL
USER_CHARGES

@<TRIPOS>ATOM
      1 C1         -2.4899   -0.6456    1.2996 C.3       1 <0>        -0.1077
      2 C2         -1.2019   -1.0524    0.6314 C.ar      1 <0>        -0.1157
      3 C3         -1.2198   -1.9073   -0.4628 C.ar      1 <0>         0.0727
      4 C4          0.0695   -2.2594   -1.0608 C.ar      1 <0>        -0.0480
      5 C5          0.1540   -3.1126   -2.1653 C.ar      1 <0>        -0.0788
      6 C6          1.3775   -3.4144   -2.6921 C.ar      1 <0>         0.1157
      7 C7          2.5429   -2.8815   -2.1402 C.ar      1 <0>        -0.0762
      8 C8          2.4932   -2.0487   -1.0652 C.ar      1 <0>        -0.1137
      9 C9          1.2502   -1.7152   -0.4972 C.ar      1 <0>         0.1273
     10 N1          1.1716   -0.8996    0.5574 N.ar      1 <0>        -0.4781
     11 C10         0.0245   -0.5667    1.1052 C.ar      1 <0>         0.4747
     12 N2          0.0280    0.2921    2.1965 N.pl3     1 <0>        -0.6040
     13 C11        -0.1126    1.7486    2.1193 C.3       1 <0>         0.1221
     14 C12        -0.0478    2.2369    3.5757 C.3       1 <0>        -0.0770
     15 C13         0.1305    0.9761    4.3913 C.ar      1 <0>        -0.1597
     16 C14         0.1599   -0.1070    3.5288 C.ar      1 <0>         0.2062
     17 C15         0.3123   -1.3916    4.0547 C.ar      1 <0>        -0.1953
     18 C16         0.4286   -1.5823    5.4208 C.ar      1 <0>         0.1769
     19 C17         0.3945   -0.4976    6.2823 C.ar      1 <0>        -0.2179
     20 C18         0.2517    0.7881    5.7659 C.ar      1 <0>         0.0509
     21 C19         0.2133    1.9557    6.6811 C.ar      1 <0>        -0.0560
     22 C20         1.0183    3.0654    6.4327 C.ar      1 <0>        -0.1019
     23 C21         0.9783    4.1488    7.2869 C.ar      1 <0>        -0.1186
     24 C22         0.1414    4.1340    8.3881 C.ar      1 <0>        -0.1120
     25 C23        -0.6599    3.0349    8.6394 C.ar      1 <0>        -0.1171
     26 C24        -0.6321    1.9484    7.7886 C.ar      1 <0>        -0.1010
     27 O1          0.5764   -2.8380    5.9189 O.3       1 <0>        -0.3113
     28 C25         0.6908   -2.9639    7.3378 C.3       1 <0>         0.0253
     29 F1          1.4602   -4.2387   -3.7593 F         1 <0>        -0.1158
     30 C26        -2.4871   -2.4399   -1.0008 C.2       1 <0>         0.5191
     31 O2         -3.0756   -1.8381   -1.8879 O.co2     1 <0>        -0.6328
     32 O3         -2.9484   -3.4828   -0.5594 O.co2     1 <0>        -0.6321
     33 H1         -2.8482    0.2859    0.8612 H         1 <0>         0.0892
     34 H2         -3.2367   -1.4262    1.1546 H         1 <0>         0.0981
     35 H3         -2.3165   -0.5022    2.3661 H         1 <0>         0.0802
     36 H4         -0.7424   -3.5306   -2.5990 H         1 <0>         0.1723
     37 H5          3.4996   -3.1343   -2.5729 H         1 <0>         0.1645
     38 H6          3.4047   -1.6447   -0.6500 H         1 <0>         0.1612
     39 H7          0.7051    2.1772    1.5399 H         1 <0>         0.0813
     40 H8         -1.0718    2.0129    1.6741 H         1 <0>         0.0908
     41 H9          0.8029    2.9039    3.7156 H         1 <0>         0.0941
     42 H10        -0.9753    2.7394    3.8499 H         1 <0>         0.0981
     43 H11         0.3392   -2.2429    3.3906 H         1 <0>         0.1265
     44 H12         0.4846   -0.6477    7.3481 H         1 <0>         0.1389
     45 H13         1.6727    3.0778    5.5736 H         1 <0>         0.1230
     46 H14         1.6019    5.0096    7.0954 H         1 <0>         0.1257
     47 H15         0.1137    4.9836    9.0543 H         1 <0>         0.1247
     48 H16        -1.3113    3.0284    9.5008 H         1 <0>         0.1265
     49 H17        -1.2615    1.0926    7.9832 H         1 <0>         0.1248
     50 H18         1.5623   -2.4075    7.6828 H         1 <0>         0.0590
     51 H19        -0.2060   -2.5646    7.8114 H         1 <0>         0.0604
     52 H20         0.8034   -4.0155    7.6014 H         1 <0>         0.1055
     53 H21         1.9904   -0.5366    0.9298 H         1 <0>         0.4347
@<TRIPOS>BOND
     1    1    2 1
     2    1   33 1
     3    1   34 1
     4    1   35 1
     5    2   11 ar
     6    2    3 ar
     7    3    4 ar
     8    3   30 1
     9    4    9 ar
    10    4    5 ar
    11    5    6 ar
    12    5   36 1
    13    6    7 ar
    14    6   29 1
    15    7    8 ar
    16    7   37 1
    17    8    9 ar
    18    8   38 1
    19    9   10 ar
    20   10   11 ar
    21   10   53 1
    22   11   12 1
    23   12   16 1
    24   12   13 1
    25   13   14 1
    26   13   39 1
    27   13   40 1
    28   14   15 1
    29   14   41 1
    30   14   42 1
    31   15   20 ar
    32   15   16 ar
    33   16   17 ar
    34   17   18 ar
    35   17   43 1
    36   18   19 ar
    37   18   27 1
    38   19   20 ar
    39   19   44 1
    40   20   21 1
    41   21   26 ar
    42   21   22 ar
    43   22   23 ar
    44   22   45 1
    45   23   24 ar
    46   23   46 1
    47   24   25 ar
    48   24   47 1
    49   25   26 ar
    50   25   48 1
    51   26   49 1
    52   27   28 1
    53   28   50 1
    54   28   51 1
    55   28   52 1
    56   30   31 2
    57   30   32 1
@<TRIPOS>MOLECULE
CHEMBL48928
   48    52     0     0     0
SMALL
USER_CHARGES

@<TRIPOS>ATOM
      1 C1         -2.0995    0.4861    0.6618 C.3       1 <0>        -0.1051
      2 C2         -1.0128   -0.5007    0.3204 C.ar      1 <0>        -0.1265
      3 C3         -1.1210   -1.2991   -0.8110 C.ar      1 <0>        -0.0363
      4 C4         -0.0272   -2.2343   -1.0802 C.ar      1 <0>        -0.0669
      5 C5         -0.0458   -3.0783   -2.1943 C.ar      1 <0>        -0.1033
      6 C6          0.9957   -3.9359   -2.4086 C.ar      1 <0>         0.0824
      7 C7          2.0779   -3.9791   -1.5282 C.ar      1 <0>        -0.1359
      8 C8          2.1259   -3.1712   -0.4349 C.ar      1 <0>        -0.0691
      9 C9          1.0703   -2.2740   -0.1823 C.ar      1 <0>         0.1162
     10 N1          1.0918   -1.4698    0.8805 N.ar      1 <0>        -0.4785
     11 C10         0.1214   -0.6175    1.1397 C.ar      1 <0>         0.2049
     12 C11         0.2279    0.2432    2.3389 C.ar      1 <0>        -0.0135
     13 C12         0.1201    1.6192    2.2247 C.ar      1 <0>        -0.0951
     14 C13         0.2186    2.4328    3.3465 C.ar      1 <0>        -0.1085
     15 C14         0.4234    1.9021    4.5859 C.ar      1 <0>        -0.1118
     16 C15         0.5384    0.5138    4.7464 C.ar      1 <0>        -0.0344
     17 C16         0.4353   -0.3318    3.6163 C.ar      1 <0>        -0.0254
     18 C17         0.5449   -1.7205    3.7774 C.ar      1 <0>        -0.0790
     19 C18         0.7445   -2.2511    5.0172 C.ar      1 <0>        -0.1240
     20 C19         0.8426   -1.4367    6.1393 C.ar      1 <0>        -0.0974
     21 C20         0.7517   -0.0608    6.0228 C.ar      1 <0>        -0.0501
     22 C21         0.8577    0.8006    7.2232 C.ar      1 <0>        -0.0359
     23 C22         1.7143    1.9013    7.2216 C.ar      1 <0>        -0.1088
     24 C23         1.8088    2.7000    8.3428 C.ar      1 <0>        -0.1196
     25 C24         1.0564    2.4105    9.4671 C.ar      1 <0>        -0.1222
     26 C25         0.2050    1.3201    9.4748 C.ar      1 <0>        -0.1191
     27 C26         0.0972    0.5176    8.3575 C.ar      1 <0>        -0.1068
     28 F1          0.9777   -4.7521   -3.4850 F         1 <0>        -0.1414
     29 C27        -2.2916   -1.2088   -1.7053 C.2       1 <0>         0.5326
     30 O1         -2.2663   -0.4600   -2.6719 O.co2     1 <0>        -0.6695
     31 O2         -3.2868   -1.8828   -1.4799 O.co2     1 <0>        -0.6695
     32 H1         -1.8364    1.4674    0.2669 H         1 <0>         0.0702
     33 H2         -3.0405    0.1573    0.2206 H         1 <0>         0.0775
     34 H3         -2.2076    0.5472    1.7447 H         1 <0>         0.0655
     35 H4         -0.8788   -3.0529   -2.8812 H         1 <0>         0.1439
     36 H5          2.8901   -4.6652   -1.7179 H         1 <0>         0.1379
     37 H6          2.9705   -3.2173    0.2366 H         1 <0>         0.1415
     38 H7         -0.0419    2.0641    1.2541 H         1 <0>         0.1302
     39 H8          0.1320    3.5035    3.2351 H         1 <0>         0.1270
     40 H9          0.4975    2.5521    5.4452 H         1 <0>         0.1301
     41 H10         0.4707   -2.3706    2.9182 H         1 <0>         0.1311
     42 H11         0.8274   -3.3220    5.1294 H         1 <0>         0.1239
     43 H12         1.0001   -1.8817    7.1107 H         1 <0>         0.1227
     44 H13         2.3026    2.1278    6.3447 H         1 <0>         0.1265
     45 H14         2.4717    3.5526    8.3428 H         1 <0>         0.1231
     46 H15         1.1343    3.0381   10.3426 H         1 <0>         0.1204
     47 H16        -0.3798    1.0992   10.3554 H         1 <0>         0.1225
     48 H17        -0.5711   -0.3308    8.3630 H         1 <0>         0.1241
@<TRIPOS>BOND
     1    1    2 1
     2    1   32 1
     3    1   33 1
     4    1   34 1
     5    2   11 ar
     6    2    3 ar
     7    3    4 ar
     8    3   29 1
     9    4    9 ar
    10    4    5 ar
    11    5    6 ar
    12    5   35 1
    13    6    7 ar
    14    6   28 1
    15    7    8 ar
    16    7   36 1
    17    8    9 ar
    18    8   37 1
    19    9   10 ar
    20   10   11 ar
    21   11   12 1
    22   12   17 ar
    23   12   13 ar
    24   13   14 ar
    25   13   38 1
    26   14   15 ar
    27   14   39 1
    28   15   16 ar
    29   15   40 1
    30   16   21 ar
    31   16   17 ar
    32   17   18 ar
    33   18   19 ar
    34   18   41 1
    35   19   20 ar
    36   19   42 1
    37   20   21 ar
    38   20   43 1
    39   21   22 1
    40   22   27 ar
    41   22   23 ar
    42   23   24 ar
    43   23   44 1
    44   24   25 ar
    45   24   45 1
    46   25   26 ar
    47   25   46 1
    48   26   27 ar
    49   26   47 1
    50   27   48 1
    51   29   30 2
    52   29   31 1
@<TRIPOS>MOLECULE
CHEMBL960
   28    29     0     0     0
SMALL
USER_CHARGES

@<TRIPOS>ATOM
      1 C1         -2.0048   -5.1025   -1.8704 C.3       1 <0>        -0.0933
      2 C2         -1.2139   -4.0474   -1.1410 C.2       1 <0>         0.1701
      3 C3         -1.7196   -2.9078   -0.5837 C.2       1 <0>        -0.3292
      4 C4         -0.5908   -2.1910    0.0120 C.2       1 <0>         0.1084
      5 N1          0.4747   -2.9028   -0.2091 N.2       1 <0>        -0.2980
      6 O1          0.1034   -4.0660   -0.9216 O.3       1 <0>        -0.0768
      7 C5         -3.1304   -2.4816   -0.5823 C.2       1 <0>         0.5995
      8 O2         -3.9754   -3.1743   -1.1163 O.2       1 <0>        -0.5123
      9 N2         -3.4841   -1.3242    0.0109 N.am      1 <0>        -0.6699
     10 C6         -4.8050   -0.8717   -0.0709 C.ar      1 <0>         0.1788
     11 C7         -5.0702    0.4885   -0.1638 C.ar      1 <0>        -0.1455
     12 C8         -6.3756    0.9320   -0.2448 C.ar      1 <0>        -0.0493
     13 C9         -7.4181    0.0235   -0.2336 C.ar      1 <0>        -0.1984
     14 C10        -7.1575   -1.3313   -0.1407 C.ar      1 <0>        -0.0495
     15 C11        -5.8541   -1.7818   -0.0651 C.ar      1 <0>        -0.1224
     16 C12        -8.8413    0.5111   -0.3222 C.3       1 <0>         0.5096
     17 F1         -9.2269    0.5829   -1.6651 F         1 <0>        -0.1760
     18 F2         -9.6817   -0.3771    0.3575 F         1 <0>        -0.1766
     19 F3         -8.9365    1.7802    0.2588 F         1 <0>        -0.1772
     20 H1         -1.3345   -5.8967   -2.1991 H         1 <0>         0.0899
     21 H2         -2.7597   -5.5174   -1.2024 H         1 <0>         0.1099
     22 H3         -2.4924   -4.6567   -2.7374 H         1 <0>         0.1099
     23 H4         -0.6347   -1.2480    0.5367 H         1 <0>         0.2098
     24 H5         -2.8226   -0.8051    0.4944 H         1 <0>         0.4139
     25 H6         -4.2565    1.1985   -0.1722 H         1 <0>         0.1396
     26 H7         -6.5825    1.9896   -0.3167 H         1 <0>         0.1416
     27 H8         -7.9739   -2.0383   -0.1318 H         1 <0>         0.1410
     28 H9         -5.6510   -2.8404    0.0025 H         1 <0>         0.1522
@<TRIPOS>BOND
     1    1    2 1
     2    1   20 1
     3    1   21 1
     4    1   22 1
     5    2    6 1
     6    2    3 2
     7    3    4 1
     8    3    7 1
     9    4    5 2
    10    4   23 1
    11    5    6 1
    12    7    8 2
    13    7    9 am
    14    9   10 1
    15    9   24 1
    16   10   15 ar
    17   10   11 ar
    18   11   12 ar
    19   11   25 1
    20   12   13 ar
    21   12   26 1
    22   13   14 ar
    23   13   16 1
    24   14   15 ar
    25   14   27 1
    26   15   28 1
    27   16   17 1
    28   16   18 1
    29   16   19 1
@<TRIPOS>MOLECULE
CHEMBL288381
   39    42     0     0     0
SMALL
USER_CHARGES

@<TRIPOS>ATOM
      1 C1         -0.0111    1.5029    0.0096 C.3       1 <0>        -0.1131
      2 C2          0.0055   -0.0040    0.0017 C.ar      1 <0>        -0.1281
      3 C3         -0.0985   -0.6995   -1.1948 C.ar      1 <0>        -0.0337
      4 C4         -0.0753   -2.1625   -1.1270 C.ar      1 <0>        -0.0652
      5 C5         -0.1736   -2.9476   -2.2791 C.ar      1 <0>        -0.1032
      6 C6         -0.1476   -4.3094   -2.1722 C.ar      1 <0>         0.0844
      7 C7         -0.0245   -4.9253   -0.9261 C.ar      1 <0>        -0.1351
      8 C8          0.0728   -4.1891    0.2139 C.ar      1 <0>        -0.0680
      9 C9          0.0505   -2.7833    0.1418 C.ar      1 <0>         0.1200
     10 N1          0.1455   -2.0376    1.2432 N.ar      1 <0>        -0.4745
     11 C10         0.1323   -0.7188    1.2059 C.ar      1 <0>         0.2418
     12 C11         0.2482    0.0308    2.4704 C.2       1 <0>        -0.1034
     13 C12        -0.2402   -0.2962    3.7221 C.2       1 <0>        -0.1208
     14 C13        -0.0078    0.5629    4.7647 C.2       1 <0>        -0.1420
     15 C14         0.7056    1.7222    4.5240 C.2       1 <0>        -0.1371
     16 S1          1.0617    1.5894    2.7797 S.3       1 <0>         0.1251
     17 C15         1.0813    2.7940    5.4690 C.ar      1 <0>         0.0042
     18 C16         0.7117    2.7056    6.8125 C.ar      1 <0>        -0.1023
     19 C17         1.0657    3.7099    7.6895 C.ar      1 <0>        -0.1161
     20 C18         1.7851    4.8031    7.2403 C.ar      1 <0>        -0.1208
     21 C19         2.1547    4.8970    5.9102 C.ar      1 <0>        -0.1135
     22 C20         1.8126    3.8969    5.0238 C.ar      1 <0>        -0.1096
     23 F1         -0.2426   -5.0685   -3.2857 F         1 <0>        -0.1405
     24 C21        -0.2278    0.0069   -2.4842 C.2       1 <0>         0.5327
     25 O1          0.7662    0.2336   -3.1595 O.co2     1 <0>        -0.6679
     26 O2         -1.3289    0.3655   -2.8772 O.co2     1 <0>        -0.6681
     27 H1          1.0124    1.8775    0.0115 H         1 <0>         0.0719
     28 H2         -0.5291    1.8652   -0.8784 H         1 <0>         0.0857
     29 H3         -0.5288    1.8558    0.9015 H         1 <0>         0.0694
     30 H4         -0.2699   -2.4805   -3.2481 H         1 <0>         0.1453
     31 H5         -0.0065   -6.0035   -0.8657 H         1 <0>         0.1391
     32 H6          0.1668   -4.6813    1.1706 H         1 <0>         0.1425
     33 H7         -0.7943   -1.2104    3.8753 H         1 <0>         0.1410
     34 H8         -0.3753    0.3384    5.7551 H         1 <0>         0.1348
     35 H9          0.1495    1.8532    7.1642 H         1 <0>         0.1260
     36 H10         0.7804    3.6428    8.7289 H         1 <0>         0.1252
     37 H11         2.0591    5.5869    7.9310 H         1 <0>         0.1228
     38 H12         2.7162    5.7530    5.5662 H         1 <0>         0.1261
     39 H13         2.1058    3.9691    3.9869 H         1 <0>         0.1250
@<TRIPOS>BOND
     1    1    2 1
     2    1   27 1
     3    1   28 1
     4    1   29 1
     5    2   11 ar
     6    2    3 ar
     7    3    4 ar
     8    3   24 1
     9    4    9 ar
    10    4    5 ar
    11    5    6 ar
    12    5   30 1
    13    6    7 ar
    14    6   23 1
    15    7    8 ar
    16    7   31 1
    17    8    9 ar
    18    8   32 1
    19    9   10 ar
    20   10   11 ar
    21   11   12 1
    22   12   16 1
    23   12   13 2
    24   13   14 1
    25   13   33 1
    26   14   15 2
    27   14   34 1
    28   15   16 1
    29   15   17 1
    30   17   22 ar
    31   17   18 ar
    32   18   19 ar
    33   18   35 1
    34   19   20 ar
    35   19   36 1
    36   20   21 ar
    37   20   37 1
    38   21   22 ar
    39   21   38 1
    40   22   39 1
    41   24   25 2
    42   24   26 1
@<TRIPOS>MOLECULE
CHEMBL41799
   39    42     0     0     0
SMALL
USER_CHARGES

@<TRIPOS>ATOM
      1 C1         -0.0035    1.5029    0.0089 C.3       1 <0>        -0.1115
      2 C2          0.0091   -0.0040    0.0014 C.ar      1 <0>        -0.1296
      3 C3         -0.0985   -0.7000   -1.1959 C.ar      1 <0>        -0.0360
      4 C4         -0.0785   -2.1623   -1.1267 C.ar      1 <0>        -0.0677
      5 C5         -0.1804   -2.9492   -2.2776 C.ar      1 <0>        -0.1030
      6 C6         -0.1571   -4.3106   -2.1683 C.ar      1 <0>         0.0819
      7 C7         -0.0329   -4.9248   -0.9211 C.ar      1 <0>        -0.1357
      8 C8          0.0679   -4.1872    0.2175 C.ar      1 <0>        -0.0698
      9 C9          0.0480   -2.7813    0.1432 C.ar      1 <0>         0.1188
     10 N1          0.1455   -2.0337    1.2427 N.ar      1 <0>        -0.4819
     11 C10         0.1355   -0.7174    1.2034 C.ar      1 <0>         0.2030
     12 C11         0.2553    0.0365    2.4729 C.ar      1 <0>        -0.0272
     13 C12         0.9390    1.2532    2.4998 C.ar      1 <0>        -0.0971
     14 C13         1.0506    1.9543    3.6788 C.ar      1 <0>        -0.1085
     15 C14         0.4789    1.4480    4.8491 C.ar      1 <0>        -0.0099
     16 C15        -0.2057    0.2302    4.8212 C.ar      1 <0>        -0.1026
     17 C16        -0.3207   -0.4673    3.6404 C.ar      1 <0>        -0.0756
     18 C17         0.5987    2.1994    6.1147 C.2       1 <0>        -0.0932
     19 C18         0.1209    1.8780    7.3581 C.2       1 <0>        -0.1588
     20 C19         0.3587    2.7436    8.4023 C.2       1 <0>        -0.1513
     21 C20         1.0567    3.8854    8.1699 C.2       1 <0>        -0.1849
     22 S1          1.4104    3.7591    6.4246 S.3       1 <0>         0.0544
     23 F1         -0.2560   -5.0714   -3.2803 F         1 <0>        -0.1414
     24 C21        -0.2283    0.0060   -2.4855 C.2       1 <0>         0.5323
     25 O1          0.7655    0.2329   -3.1610 O.co2     1 <0>        -0.6694
     26 O2         -1.3296    0.3640   -2.8785 O.co2     1 <0>        -0.6694
     27 H1          1.0198    1.8751   -0.0423 H         1 <0>         0.0729
     28 H2         -0.5656    1.8659   -0.8515 H         1 <0>         0.0787
     29 H3         -0.4736    1.8578    0.9260 H         1 <0>         0.0716
     30 H4         -0.2773   -2.4836   -3.2473 H         1 <0>         0.1442
     31 H5         -0.0168   -6.0029   -0.8590 H         1 <0>         0.1380
     32 H6          0.1627   -4.6782    1.1747 H         1 <0>         0.1416
     33 H7          1.3807    1.6443    1.5952 H         1 <0>         0.1449
     34 H8          1.5802    2.8953    3.6996 H         1 <0>         0.1266
     35 H9         -0.6479   -0.1617    5.7252 H         1 <0>         0.1273
     36 H10        -0.8533   -1.4065    3.6178 H         1 <0>         0.1348
     37 H11        -0.4317    0.9637    7.5160 H         1 <0>         0.1349
     38 H12        -0.0056    2.5176    9.3936 H         1 <0>         0.1334
     39 H13         1.3306    4.6668    8.8633 H         1 <0>         0.1850
@<TRIPOS>BOND
     1    1    2 1
     2    1   27 1
     3    1   28 1
     4    1   29 1
     5    2   11 ar
     6    2    3 ar
     7    3    4 ar
     8    3   24 1
     9    4    9 ar
    10    4    5 ar
    11    5    6 ar
    12    5   30 1
    13    6    7 ar
    14    6   23 1
    15    7    8 ar
    16    7   31 1
    17    8    9 ar
    18    8   32 1
    19    9   10 ar
    20   10   11 ar
    21   11   12 1
    22   12   17 ar
    23   12   13 ar
    24   13   14 ar
    25   13   33 1
    26   14   15 ar
    27   14   34 1
    28   15   16 ar
    29   15   18 1
    30   16   17 ar
    31   16   35 1
    32   17   36 1
    33   18   22 1
    34   18   19 2
    35   19   20 1
    36   19   37 1
    37   20   21 2
    38   20   38 1
    39   21   22 1
    40   21   39 1
    41   24   25 2
    42   24   26 1
@<TRIPOS>MOLECULE
CHEMBL370228
   39    41     0     0     0
SMALL
USER_CHARGES

@<TRIPOS>ATOM
      1 C1          0.0327    1.4148    0.0759 C.3       1 <0>         0.0279
      2 O1          0.0457   -0.0140    0.0589 O.3       1 <0>        -0.3165
      3 C2          0.6439   -0.6129   -1.0044 C.ar      1 <0>         0.1303
      4 C3          1.2119    0.1606   -2.0077 C.ar      1 <0>        -0.2125
      5 C4          1.8213   -0.4442   -3.0908 C.ar      1 <0>        -0.0774
      6 C5          1.8687   -1.8210   -3.1811 C.ar      1 <0>        -0.1507
      7 C6          1.3010   -2.6048   -2.1782 C.ar      1 <0>         0.0075
      8 C7          0.6919   -1.9948   -1.0840 C.ar      1 <0>        -0.1441
      9 C8          1.3505   -4.0845   -2.2727 C.ar      1 <0>        -0.0578
     10 C9          0.7773   -4.8672   -1.2718 C.ar      1 <0>        -0.0851
     11 C10         0.8240   -6.2425   -1.3607 C.ar      1 <0>        -0.1074
     12 C11         1.4423   -6.8494   -2.4468 C.ar      1 <0>         0.1497
     13 C12         2.0155   -6.0709   -3.4478 C.ar      1 <0>         0.0551
     14 C13         1.9653   -4.6937   -3.3654 C.ar      1 <0>        -0.1166
     15 F1          2.6163   -6.6629   -4.5031 F         1 <0>        -0.1399
     16 N1          1.4890   -8.2446   -2.5340 N.am      1 <0>        -0.6787
     17 C14         0.5617   -8.9908   -1.9016 C.2       1 <0>         0.5665
     18 O2         -0.3725   -8.4518   -1.3393 O.2       1 <0>        -0.4300
     19 C15         0.6796  -10.4586   -1.8914 C.2       1 <0>        -0.2042
     20 C16         1.6589  -11.2096   -2.4630 C.2       1 <0>        -0.0161
     21 O3          1.4052  -12.5021   -2.2296 O.3       1 <0>        -0.1784
     22 C17         0.2849  -12.6565   -1.5177 C.2       1 <0>        -0.0287
     23 C18        -0.2393  -11.4268   -1.2515 C.2       1 <0>        -0.1705
     24 C19        -1.4604  -11.1260   -0.4931 C.2       1 <0>         0.5320
     25 O4         -2.1255  -12.0367   -0.0178 O.co2     1 <0>        -0.6995
     26 O5         -1.8129   -9.9645   -0.3365 O.co2     1 <0>        -0.6429
     27 H1          1.0570    1.7876    0.0679 H         1 <0>         0.0546
     28 H2         -0.4952    1.7839   -0.8034 H         1 <0>         0.0549
     29 H3         -0.4735    1.7628    0.9763 H         1 <0>         0.0997
     30 H4          1.1771    1.2380   -1.9418 H         1 <0>         0.1266
     31 H5          2.2614    0.1620   -3.8688 H         1 <0>         0.1258
     32 H6          2.3454   -2.2906   -4.0288 H         1 <0>         0.1271
     33 H7          0.2543   -2.5977   -0.3020 H         1 <0>         0.1372
     34 H8          0.2970   -4.3967   -0.4267 H         1 <0>         0.1366
     35 H9          0.3797   -6.8485   -0.5849 H         1 <0>         0.1646
     36 H10         2.4059   -4.0891   -4.1443 H         1 <0>         0.1396
     37 H11         2.1888   -8.6752   -3.0496 H         1 <0>         0.4056
     38 H12         2.5035  -10.8252   -3.0155 H         1 <0>         0.2015
     39 H13        -0.1339  -13.6004   -1.2013 H         1 <0>         0.2140
@<TRIPOS>BOND
     1    1    2 1
     2    1   27 1
     3    1   28 1
     4    1   29 1
     5    2    3 1
     6    3    8 ar
     7    3    4 ar
     8    4    5 ar
     9    4   30 1
    10    5    6 ar
    11    5   31 1
    12    6    7 ar
    13    6   32 1
    14    7    8 ar
    15    7    9 1
    16    8   33 1
    17    9   14 ar
    18    9   10 ar
    19   10   11 ar
    20   10   34 1
    21   11   12 ar
    22   11   35 1
    23   12   13 ar
    24   12   16 1
    25   13   14 ar
    26   13   15 1
    27   14   36 1
    28   16   17 am
    29   16   37 1
    30   17   18 2
    31   17   19 1
    32   19   23 1
    33   19   20 2
    34   20   21 1
    35   20   38 1
    36   21   22 1
    37   22   23 2
    38   22   39 1
    39   23   24 1
    40   24   25 2
    41   24   26 1
@<TRIPOS>MOLECULE
CHEMBL154623
   43    45     0     0     0
SMALL
USER_CHARGES

@<TRIPOS>ATOM
      1 C1          0.0014    1.3723   -0.5098 C.ar      1 <0>        -0.0766
      2 C2          1.2007    2.0558   -0.4889 C.ar      1 <0>        -0.1058
      3 C3          2.3759    1.3902   -0.1440 C.ar      1 <0>        -0.0081
      4 C4          2.3352    0.0354    0.1789 C.ar      1 <0>        -0.0956
      5 C5          1.1276   -0.6421    0.1553 C.ar      1 <0>         0.1051
      6 C6         -0.0383    0.0284   -0.1894 C.ar      1 <0>        -0.1818
      7 O1          1.0839   -1.9637    0.4692 O.3       1 <0>        -0.3075
      8 C7         -0.1953   -2.5991    0.4242 C.3       1 <0>         0.6043
      9 F1         -0.7188   -2.5025   -0.8695 F         1 <0>        -0.1647
     10 F2         -0.0588   -3.9472    0.7726 F         1 <0>        -0.1307
     11 F3         -1.0605   -1.9698    1.3256 F         1 <0>        -0.1652
     12 C8          3.6656    2.1216   -0.1212 C.ar      1 <0>        -0.1028
     13 C9          4.6755    1.7865   -1.0248 C.ar      1 <0>         0.1215
     14 C10         5.8768    2.4703   -1.0018 C.ar      1 <0>         0.0977
     15 C11         6.0799    3.4914   -0.0789 C.ar      1 <0>         0.1665
     16 C12         5.0751    3.8270    0.8231 C.ar      1 <0>         0.0507
     17 C13         3.8698    3.1504    0.8001 C.ar      1 <0>         0.1221
     18 F4          2.8924    3.4805    1.6725 F         1 <0>        -0.1091
     19 F5          5.2755    4.8187    1.7184 F         1 <0>        -0.1127
     20 N1          7.2958    4.1810   -0.0574 N.am      1 <0>        -0.6431
     21 C14         7.9653    4.4026   -1.2060 C.2       1 <0>         0.6047
     22 O2          7.4842    4.0547   -2.2666 O.2       1 <0>        -0.5062
     23 C15         9.2841    5.0685   -1.1759 C.2       1 <0>        -0.1983
     24 C16        10.4349    4.4690   -0.8404 C.2       1 <0>        -0.0978
     25 C17        11.5844    5.4468   -0.9188 C.3       1 <0>        -0.0878
     26 C18        11.0465    6.6263   -1.7602 C.3       1 <0>        -0.1227
     27 C19         9.5246    6.5190   -1.5253 C.3       1 <0>        -0.0684
     28 C20        10.5615    3.0539   -0.4492 C.2       1 <0>         0.5160
     29 O3          9.5602    2.3644   -0.3156 O.co2     1 <0>        -0.6685
     30 O4         11.6678    2.5689   -0.2581 O.co2     1 <0>        -0.6793
     31 F6          6.8546    2.1464   -1.8761 F         1 <0>        -0.0704
     32 F7          4.4793    0.7945   -1.9207 F         1 <0>        -0.1057
     33 H1         -0.9090    1.8903   -0.7729 H         1 <0>         0.1391
     34 H2          1.2285    3.1058   -0.7401 H         1 <0>         0.1365
     35 H3          3.2430   -0.4850    0.4465 H         1 <0>         0.1450
     36 H4         -0.9790   -0.5018   -0.2073 H         1 <0>         0.1356
     37 H5          7.6577    4.5001    0.7841 H         1 <0>         0.4212
     38 H6         11.8607    5.7879    0.0789 H         1 <0>         0.0793
     39 H7         12.4399    4.9872   -1.4137 H         1 <0>         0.0802
     40 H8         11.4342    7.5762   -1.3921 H         1 <0>         0.0724
     41 H9         11.2845    6.4926   -2.8154 H         1 <0>         0.0697
     42 H10         8.9803    6.7859   -2.4312 H         1 <0>         0.0693
     43 H11         9.2249    7.1628   -0.6984 H         1 <0>         0.0722
@<TRIPOS>BOND
     1    1    6 ar
     2    1    2 ar
     3    1   33 1
     4    2    3 ar
     5    2   34 1
     6    3    4 ar
     7    3   12 1
     8    4    5 ar
     9    4   35 1
    10    5    6 ar
    11    5    7 1
    12    6   36 1
    13    7    8 1
    14    8    9 1
    15    8   10 1
    16    8   11 1
    17   12   17 ar
    18   12   13 ar
    19   13   14 ar
    20   13   32 1
    21   14   15 ar
    22   14   31 1
    23   15   16 ar
    24   15   20 1
    25   16   17 ar
    26   16   19 1
    27   17   18 1
    28   20   21 am
    29   20   37 1
    30   21   22 2
    31   21   23 1
    32   23   27 1
    33   23   24 2
    34   24   25 1
    35   24   28 1
    36   25   26 1
    37   25   38 1
    38   25   39 1
    39   26   27 1
    40   26   40 1
    41   26   41 1
    42   27   42 1
    43   27   43 1
    44   28   29 2
    45   28   30 1
@<TRIPOS>MOLECULE
CHEMBL345701
   43    45     0     0     0
SMALL
USER_CHARGES

@<TRIPOS>ATOM
      1 C1          0.8739    1.3240    0.2506 C.3       1 <0>         0.0260
      2 O1          0.5669   -0.0673    0.1404 O.3       1 <0>        -0.3067
      3 C2          0.8475   -0.6689   -1.0451 C.ar      1 <0>         0.1560
      4 C3          1.4114    0.0610   -2.0788 C.ar      1 <0>        -0.2108
      5 C4          1.6960   -0.5520   -3.2845 C.ar      1 <0>        -0.0695
      6 C5          1.4203   -1.8957   -3.4670 C.ar      1 <0>        -0.1585
      7 C6          0.8589   -2.6350   -2.4457 C.ar      1 <0>        -0.0520
      8 C7          0.5734   -2.0284   -1.2243 C.ar      1 <0>        -0.0843
      9 C8         -0.0240   -2.8193   -0.1217 C.ar      1 <0>        -0.0816
     10 C9         -1.4115   -2.9211   -0.0063 C.ar      1 <0>         0.1206
     11 C10        -1.9660   -3.6591    1.0228 C.ar      1 <0>         0.0965
     12 C11        -1.1425   -4.2997    1.9433 C.ar      1 <0>         0.1608
     13 C12         0.2406   -4.1998    1.8305 C.ar      1 <0>         0.0486
     14 C13         0.8002   -3.4681    0.7996 C.ar      1 <0>         0.1204
     15 F1          2.1434   -3.3765    0.6871 F         1 <0>        -0.1119
     16 F2          1.0375   -4.8226    2.7261 F         1 <0>        -0.1155
     17 N1         -1.7060   -5.0448    2.9838 N.am      1 <0>        -0.6433
     18 C14        -2.8549   -5.7203    2.7836 C.2       1 <0>         0.6040
     19 O2         -3.3706   -5.7295    1.6829 O.2       1 <0>        -0.5079
     20 C15        -3.4878   -6.4495    3.9022 C.2       1 <0>        -0.1968
     21 C16        -4.2127   -5.8777    4.8737 C.2       1 <0>        -0.0996
     22 C17        -4.7066   -6.9203    5.8498 C.3       1 <0>        -0.0873
     23 C18        -4.5412   -8.2673    5.1106 C.3       1 <0>        -0.1226
     24 C19        -3.4135   -7.9450    4.1068 C.3       1 <0>        -0.0686
     25 C20        -4.4891   -4.4339    4.9761 C.2       1 <0>         0.5158
     26 O3         -3.9620   -3.6536    4.1957 O.co2     1 <0>        -0.6671
     27 O4         -5.2456   -4.0160    5.8413 O.co2     1 <0>        -0.6808
     28 F3         -3.3087   -3.7581    1.1350 F         1 <0>        -0.0732
     29 F4         -2.2117   -2.2986   -0.8992 F         1 <0>        -0.1087
     30 H1          1.9418    1.4740    0.0915 H         1 <0>         0.0561
     31 H2          0.3130    1.8804   -0.5003 H         1 <0>         0.0569
     32 H3          0.6013    1.6786    1.2446 H         1 <0>         0.1031
     33 H4          1.6286    1.1101   -1.9425 H         1 <0>         0.1320
     34 H5          2.1353    0.0206   -4.0880 H         1 <0>         0.1267
     35 H6          1.6448   -2.3674   -4.4122 H         1 <0>         0.1286
     36 H7          0.6451   -3.6835   -2.5917 H         1 <0>         0.1336
     37 H8         -1.2698   -5.0756    3.8497 H         1 <0>         0.4198
     38 H9         -4.1009   -6.9083    6.7560 H         1 <0>         0.0788
     39 H10        -5.7552   -6.7468    6.0914 H         1 <0>         0.0797
     40 H11        -4.2390   -9.0556    5.8000 H         1 <0>         0.0720
     41 H12        -5.4576   -8.5396    4.5871 H         1 <0>         0.0695
     42 H13        -3.5833   -8.4654    3.1642 H         1 <0>         0.0692
     43 H14        -2.4462   -8.2227    4.5253 H         1 <0>         0.0720
@<TRIPOS>BOND
     1    1    2 1
     2    1   30 1
     3    1   31 1
     4    1   32 1
     5    2    3 1
     6    3    8 ar
     7    3    4 ar
     8    4    5 ar
     9    4   33 1
    10    5    6 ar
    11    5   34 1
    12    6    7 ar
    13    6   35 1
    14    7    8 ar
    15    7   36 1
    16    8    9 1
    17    9   14 ar
    18    9   10 ar
    19   10   11 ar
    20   10   29 1
    21   11   12 ar
    22   11   28 1
    23   12   13 ar
    24   12   17 1
    25   13   14 ar
    26   13   16 1
    27   14   15 1
    28   17   18 am
    29   17   37 1
    30   18   19 2
    31   18   20 1
    32   20   24 1
    33   20   21 2
    34   21   22 1
    35   21   25 1
    36   22   23 1
    37   22   38 1
    38   22   39 1
    39   23   24 1
    40   23   40 1
    41   23   41 1
    42   24   42 1
    43   24   43 1
    44   25   26 2
    45   25   27 1
@<TRIPOS>MOLECULE
CHEMBL108213
   44    48     0     0     0
SMALL
USER_CHARGES

@<TRIPOS>ATOM
      1 C1         -0.5476    1.2855   -0.1643 C.3       1 <0>        -0.1151
      2 C2         -0.5408   -0.2211   -0.1290 C.ar      1 <0>        -0.0855
      3 C3         -0.6392   -0.9398   -1.3071 C.ar      1 <0>        -0.1222
      4 C4         -0.6331   -2.3226   -1.2825 C.ar      1 <0>        -0.1137
      5 C5         -0.5292   -2.9936   -0.0808 C.ar      1 <0>        -0.1156
      6 C6         -0.4298   -2.2749    1.1092 C.ar      1 <0>        -0.0359
      7 C7         -0.4307   -0.8811    1.0777 C.ar      1 <0>        -0.1103
      8 C8         -0.3183   -2.9901    2.4035 C.ar      1 <0>        -0.0351
      9 C9         -0.2246   -2.2708    3.5952 C.ar      1 <0>        -0.1179
     10 C10        -0.1219   -2.9402    4.7902 C.ar      1 <0>        -0.0665
     11 C11        -0.1112   -4.3436    4.8243 C.ar      1 <0>        -0.0368
     12 C12        -0.2052   -5.0581    3.6376 C.ar      1 <0>        -0.0516
     13 C13        -0.3126   -4.3814    2.4346 C.ar      1 <0>        -0.1053
     14 C14        -0.2027   -6.5645    3.5902 C.3       1 <0>        -0.0860
     15 S1          0.9411   -7.2115    4.8420 S.3       1 <0>        -0.0548
     16 C15         0.4881   -6.3082    6.2859 C.ar      1 <0>        -0.1545
     17 C16         0.0022   -4.9864    6.1570 C.ar      1 <0>         0.2152
     18 N1         -0.3574   -4.2916    7.2206 N.ar      1 <0>        -0.4786
     19 C17        -0.2832   -4.7700    8.4634 C.ar      1 <0>         0.1246
     20 C18        -0.6790   -3.9848    9.5627 C.ar      1 <0>        -0.0691
     21 C19        -0.5932   -4.4918   10.8227 C.ar      1 <0>        -0.1324
     22 C20        -0.1176   -5.7833   11.0484 C.ar      1 <0>         0.0856
     23 C21         0.2751   -6.5737   10.0044 C.ar      1 <0>        -0.1001
     24 C22         0.1980   -6.0814    8.7000 C.ar      1 <0>        -0.0636
     25 C23         0.6050   -6.8945    7.5485 C.ar      1 <0>         0.0011
     26 C24         1.1113   -8.2614    7.7154 C.2       1 <0>         0.5316
     27 O1          2.3104   -8.4558    7.8666 O.co2     1 <0>        -0.6638
     28 O2          0.3345   -9.2075    7.7034 O.co2     1 <0>        -0.6589
     29 F1         -0.0437   -6.2577   12.3112 F         1 <0>        -0.1393
     30 H1          0.4743    1.6512   -0.2648 H         1 <0>         0.0705
     31 H2         -1.1406    1.6264   -1.0129 H         1 <0>         0.0658
     32 H3         -0.9813    1.6686    0.7594 H         1 <0>         0.0666
     33 H4         -0.7214   -0.4189   -2.2497 H         1 <0>         0.1206
     34 H5         -0.7102   -2.8785   -2.2052 H         1 <0>         0.1237
     35 H6         -0.5253   -4.0735   -0.0626 H         1 <0>         0.1263
     36 H7         -0.3494   -0.3191    1.9964 H         1 <0>         0.1261
     37 H8         -0.2324   -1.1909    3.5782 H         1 <0>         0.1292
     38 H9         -0.0492   -2.3820    5.7119 H         1 <0>         0.1390
     39 H10        -0.3894   -4.9379    1.5122 H         1 <0>         0.1314
     40 H11        -1.2078   -6.9356    3.7906 H         1 <0>         0.1022
     41 H12         0.1157   -6.8960    2.6018 H         1 <0>         0.1232
     42 H13        -1.0494   -2.9824    9.4065 H         1 <0>         0.1431
     43 H14        -0.8982   -3.8840   11.6617 H         1 <0>         0.1400
     44 H15         0.6425   -7.5727   10.1873 H         1 <0>         0.1466
@<TRIPOS>BOND
     1    1    2 1
     2    1   30 1
     3    1   31 1
     4    1   32 1
     5    2    7 ar
     6    2    3 ar
     7    3    4 ar
     8    3   33 1
     9    4    5 ar
    10    4   34 1
    11    5    6 ar
    12    5   35 1
    13    6    7 ar
    14    6    8 1
    15    7   36 1
    16    8   13 ar
    17    8    9 ar
    18    9   10 ar
    19    9   37 1
    20   10   11 ar
    21   10   38 1
    22   11   17 1
    23   11   12 ar
    24   12   13 ar
    25   12   14 1
    26   13   39 1
    27   14   15 1
    28   14   40 1
    29   14   41 1
    30   15   16 1
    31   16   25 ar
    32   16   17 ar
    33   17   18 ar
    34   18   19 ar
    35   19   24 ar
    36   19   20 ar
    37   20   21 ar
    38   20   42 1
    39   21   22 ar
    40   21   43 1
    41   22   23 ar
    42   22   29 1
    43   23   24 ar
    44   23   44 1
    45   24   25 ar
    46   25   26 1
    47   26   27 2
    48   26   28 1
@<TRIPOS>MOLECULE
CHEMBL193371
   41    43     0     0     0
SMALL
USER_CHARGES

@<TRIPOS>ATOM
      1 C1         -0.1283    1.1196   -0.1006 C.ar      1 <0>        -0.0678
      2 C2          1.0588    1.8001   -0.2968 C.ar      1 <0>        -0.1542
      3 C3          2.2596    1.1110   -0.2983 C.ar      1 <0>         0.1382
      4 C4          2.2706   -0.2597   -0.1033 C.ar      1 <0>        -0.1230
      5 C5          1.0820   -0.9389    0.0929 C.ar      1 <0>         0.0125
      6 C6         -0.1174   -0.2486    0.0940 C.ar      1 <0>        -0.1247
      7 Cl1         1.0945   -2.6575    0.3376 Cl        1 <0>        -0.0410
      8 C7          3.5769   -1.0111   -0.1051 C.3       1 <0>         0.0978
      9 O1          4.1010   -1.0586    1.2234 O.3       1 <0>        -0.2931
     10 C8          5.2843   -1.7056    1.3975 C.ar      1 <0>         0.1121
     11 C9          5.9285   -2.2771    0.3099 C.ar      1 <0>        -0.1769
     12 C10         7.1299   -2.9343    0.4855 C.ar      1 <0>        -0.1104
     13 C11         7.6941   -3.0239    1.7519 C.ar      1 <0>         0.1470
     14 C12         7.0492   -2.4517    2.8408 C.ar      1 <0>        -0.0774
     15 C13         5.8499   -1.7890    2.6626 C.ar      1 <0>        -0.0398
     16 Cl2         5.0469   -1.0668    4.0218 Cl        1 <0>        -0.0544
     17 N1          8.9110   -3.6905    1.9304 N.am      1 <0>        -0.6834
     18 C14         9.1493   -4.3636    3.0734 C.2       1 <0>         0.5510
     19 O2          8.2735   -4.4711    3.9093 O.2       1 <0>        -0.4231
     20 C15        10.4755   -4.9711    3.3104 C.2       1 <0>        -0.2396
     21 C16        10.8138   -5.7577    4.3506 C.2       1 <0>        -0.0858
     22 C17        12.2652   -6.1474    4.1832 C.3       1 <0>         0.0743
     23 O3         12.5859   -5.8867    2.8043 O.3       1 <0>        -0.3712
     24 C18        11.6929   -4.8258    2.4252 C.3       1 <0>         0.0896
     25 C19         9.9272   -6.1657    5.4548 C.2       1 <0>         0.5119
     26 O4          8.8002   -5.6984    5.5387 O.co2     1 <0>        -0.6174
     27 O5         10.3184   -6.9717    6.2873 O.co2     1 <0>        -0.6890
     28 F1          3.4200    1.7757   -0.4905 F         1 <0>        -0.1250
     29 H1         -1.0644    1.6581   -0.0950 H         1 <0>         0.1457
     30 H2          1.0496    2.8692   -0.4493 H         1 <0>         0.1454
     31 H3         -1.0454   -0.7793    0.2472 H         1 <0>         0.1443
     32 H4          3.4117   -2.0259   -0.4671 H         1 <0>         0.0832
     33 H5          4.2870   -0.5036   -0.7580 H         1 <0>         0.0786
     34 H6          5.4898   -2.2083   -0.6745 H         1 <0>         0.1361
     35 H7          7.6310   -3.3791   -0.3615 H         1 <0>         0.1335
     36 H8          7.4869   -2.5212    3.8257 H         1 <0>         0.1568
     37 H9          9.5832   -3.6682    1.2314 H         1 <0>         0.4038
     38 H10        12.8945   -5.5427    4.8363 H         1 <0>         0.0795
     39 H11        12.3985   -7.2059    4.4065 H         1 <0>         0.1064
     40 H12        11.4100   -4.9271    1.3774 H         1 <0>         0.0827
     41 H13        12.1681   -3.8598    2.5952 H         1 <0>         0.0667
@<TRIPOS>BOND
     1    1    6 ar
     2    1    2 ar
     3    1   29 1
     4    2    3 ar
     5    2   30 1
     6    3    4 ar
     7    3   28 1
     8    4    5 ar
     9    4    8 1
    10    5    6 ar
    11    5    7 1
    12    6   31 1
    13    8    9 1
    14    8   32 1
    15    8   33 1
    16    9   10 1
    17   10   15 ar
    18   10   11 ar
    19   11   12 ar
    20   11   34 1
    21   12   13 ar
    22   12   35 1
    23   13   14 ar
    24   13   17 1
    25   14   15 ar
    26   14   36 1
    27   15   16 1
    28   17   18 am
    29   17   37 1
    30   18   19 2
    31   18   20 1
    32   20   24 1
    33   20   21 2
    34   21   22 1
    35   21   25 1
    36   22   23 1
    37   22   38 1
    38   22   39 1
    39   23   24 1
    40   24   40 1
    41   24   41 1
    42   25   26 2
    43   25   27 1
@<TRIPOS>MOLECULE
CHEMBL51082
   48    52     0     0     0
SMALL
USER_CHARGES

@<TRIPOS>ATOM
      1 C1         -2.4920   -0.6315    1.2868 C.3       1 <0>        -0.0977
      2 C2         -1.2028   -1.0458    0.6254 C.ar      1 <0>        -0.1302
      3 C3         -1.2193   -1.9084   -0.4628 C.ar      1 <0>        -0.0329
      4 C4          0.0709   -2.2674   -1.0544 C.ar      1 <0>        -0.0665
      5 C5          0.1570   -3.1286   -2.1526 C.ar      1 <0>        -0.1029
      6 C6          1.3814   -3.4368   -2.6735 C.ar      1 <0>         0.0848
      7 C7          2.5462   -2.9025   -2.1220 C.ar      1 <0>        -0.1350
      8 C8          2.4951   -2.0616   -1.0534 C.ar      1 <0>        -0.0684
      9 C9          1.2512   -1.7218   -0.4911 C.ar      1 <0>         0.1262
     10 N1          1.1711   -0.8986    0.5574 N.ar      1 <0>        -0.4940
     11 C10         0.0232   -0.5593    1.0994 C.ar      1 <0>         0.4060
     12 N2          0.0252    0.3071    2.1846 N.pl3     1 <0>        -0.5726
     13 C11        -0.1111    1.7635    2.0966 C.3       1 <0>         0.1262
     14 C12        -0.0503    2.2616    3.5499 C.3       1 <0>        -0.0765
     15 C13         0.1215    1.0060    4.3746 C.ar      1 <0>        -0.1511
     16 C14         0.1515   -0.0828    3.5201 C.ar      1 <0>         0.2136
     17 C15         0.2986   -1.3644    4.0573 C.ar      1 <0>        -0.1627
     18 C16         0.4088   -1.5446    5.4204 C.ar      1 <0>        -0.0733
     19 C17         0.3752   -0.4593    6.2729 C.ar      1 <0>        -0.1570
     20 C18         0.2373    0.8253    5.7501 C.ar      1 <0>         0.0007
     21 C19         0.1986    1.9974    6.6595 C.ar      1 <0>        -0.0360
     22 C20         1.0072    3.1040    6.4085 C.ar      1 <0>        -0.1058
     23 C21         0.9668    4.1917    7.2573 C.ar      1 <0>        -0.1204
     24 C22         0.1257    4.1844    8.3553 C.ar      1 <0>        -0.1238
     25 C23        -0.6792    3.0885    8.6092 C.ar      1 <0>        -0.1204
     26 C24        -0.6507    1.9977    7.7640 C.ar      1 <0>        -0.1063
     27 F1          1.4655   -4.2688   -3.7346 F         1 <0>        -0.1404
     28 C25        -2.4862   -2.4421   -1.0008 C.2       1 <0>         0.5332
     29 O1         -3.0752   -1.8408   -1.8879 O.co2     1 <0>        -0.6684
     30 O2         -2.9465   -3.4855   -0.5595 O.co2     1 <0>        -0.6680
     31 H1         -2.8495    0.2951    0.8376 H         1 <0>         0.0677
     32 H2         -3.2387   -1.4137    1.1491 H         1 <0>         0.0765
     33 H3         -2.3204   -0.4764    2.3519 H         1 <0>         0.0640
     34 H4         -0.7391   -3.5478   -2.5860 H         1 <0>         0.1453
     35 H5          3.5037   -3.1606   -2.5499 H         1 <0>         0.1390
     36 H6          3.4062   -1.6566   -0.6383 H         1 <0>         0.1414
     37 H7          0.7098    2.1859    1.5173 H         1 <0>         0.0705
     38 H8         -1.0680    2.0273    1.6460 H         1 <0>         0.0735
     39 H9          0.8017    2.9272    3.6885 H         1 <0>         0.0840
     40 H10        -0.9775    2.7684    3.8174 H         1 <0>         0.0861
     41 H11         0.3258   -2.2208    3.3998 H         1 <0>         0.1159
     42 H12         0.5217   -2.5404    5.8230 H         1 <0>         0.1246
     43 H13         0.4618   -0.6045    7.3396 H         1 <0>         0.1219
     44 H14         1.6645    3.1106    5.5517 H         1 <0>         0.1231
     45 H15         1.5934    5.0498    7.0639 H         1 <0>         0.1213
     46 H16         0.0975    5.0374    9.0171 H         1 <0>         0.1191
     47 H17        -1.3341    3.0881    9.4679 H         1 <0>         0.1215
     48 H18        -1.2828    1.1443    7.9606 H         1 <0>         0.1242
@<TRIPOS>BOND
     1    1    2 1
     2    1   31 1
     3    1   32 1
     4    1   33 1
     5    2   11 ar
     6    2    3 ar
     7    3    4 ar
     8    3   28 1
     9    4    9 ar
    10    4    5 ar
    11    5    6 ar
    12    5   34 1
    13    6    7 ar
    14    6   27 1
    15    7    8 ar
    16    7   35 1
    17    8    9 ar
    18    8   36 1
    19    9   10 ar
    20   10   11 ar
    21   11   12 1
    22   12   16 1
    23   12   13 1
    24   13   14 1
    25   13   37 1
    26   13   38 1
    27   14   15 1
    28   14   39 1
    29   14   40 1
    30   15   20 ar
    31   15   16 ar
    32   16   17 ar
    33   17   18 ar
    34   17   41 1
    35   18   19 ar
    36   18   42 1
    37   19   20 ar
    38   19   43 1
    39   20   21 1
    40   21   26 ar
    41   21   22 ar
    42   22   23 ar
    43   22   44 1
    44   23   24 ar
    45   23   45 1
    46   24   25 ar
    47   24   46 1
    48   25   26 ar
    49   25   47 1
    50   26   48 1
    51   28   29 2
    52   28   30 1
@<TRIPOS>MOLECULE
CHEMBL51082__1
   49    53     0     0     0
SMALL
USER_CHARGES

@<TRIPOS>ATOM
      1 C1         -2.4900   -0.6448    1.2990 C.3       1 <0>        -0.1073
      2 C2         -1.2019   -1.0520    0.6311 C.ar      1 <0>        -0.1168
      3 C3         -1.2197   -1.9080   -0.4623 C.ar      1 <0>         0.0722
      4 C4          0.0696   -2.2604   -1.0600 C.ar      1 <0>        -0.0483
      5 C5          0.1542   -3.1146   -2.1637 C.ar      1 <0>        -0.0789
      6 C6          1.3777   -3.4168   -2.6902 C.ar      1 <0>         0.1158
      7 C7          2.5431   -2.8832   -2.1389 C.ar      1 <0>        -0.0763
      8 C8          2.4933   -2.0490   -1.0650 C.ar      1 <0>        -0.1139
      9 C9          1.2502   -1.7155   -0.4969 C.ar      1 <0>         0.1266
     10 N1          1.1715   -0.8990    0.5569 N.ar      1 <0>        -0.4789
     11 C10         0.0244   -0.5657    1.1044 C.ar      1 <0>         0.4767
     12 N2          0.0278    0.2941    2.1949 N.pl3     1 <0>        -0.6074
     13 C11        -0.1122    1.7506    2.1163 C.3       1 <0>         0.1221
     14 C12        -0.0481    2.2399    3.5725 C.3       1 <0>        -0.0825
     15 C13         0.1291    0.9797    4.3889 C.ar      1 <0>        -0.1224
     16 C14         0.1590   -0.1037    3.5276 C.ar      1 <0>         0.1651
     17 C15         0.3107   -1.3883    4.0564 C.ar      1 <0>        -0.1565
     18 C16         0.4255   -1.5766    5.4181 C.ar      1 <0>        -0.0722
     19 C17         0.3919   -0.4967    6.2774 C.ar      1 <0>        -0.1281
     20 C18         0.2495    0.7908    5.7629 C.ar      1 <0>         0.0099
     21 C19         0.2109    1.9572    6.6796 C.ar      1 <0>        -0.0543
     22 C20         1.0162    3.0672    6.4330 C.ar      1 <0>        -0.1046
     23 C21         0.9759    4.1495    7.2886 C.ar      1 <0>        -0.1188
     24 C22         0.1381    4.1336    8.3891 C.ar      1 <0>        -0.1135
     25 C23        -0.6634    3.0343    8.6386 C.ar      1 <0>        -0.1168
     26 C24        -0.6350    1.9487    7.7867 C.ar      1 <0>        -0.1019
     27 F1          1.4605   -4.2421   -3.7566 F         1 <0>        -0.1157
     28 C25        -2.4870   -2.4413   -0.9997 C.2       1 <0>         0.5190
     29 O1         -3.0762   -1.8399   -1.8866 O.co2     1 <0>        -0.6325
     30 O2         -2.9475   -3.4845   -0.5581 O.co2     1 <0>        -0.6326
     31 H1         -2.8488    0.2858    0.8594 H         1 <0>         0.0887
     32 H2         -3.2365   -1.4260    1.1553 H         1 <0>         0.0979
     33 H3         -2.3165   -0.4998    2.3652 H         1 <0>         0.0801
     34 H4         -0.7422   -3.5332   -2.5969 H         1 <0>         0.1723
     35 H5          3.4998   -3.1364   -2.5712 H         1 <0>         0.1645
     36 H6          3.4047   -1.6445   -0.6502 H         1 <0>         0.1611
     37 H7          0.7061    2.1785    1.5371 H         1 <0>         0.0801
     38 H8         -1.0710    2.0150    1.6703 H         1 <0>         0.0897
     39 H9          0.8028    2.9067    3.7126 H         1 <0>         0.0956
     40 H10        -0.9756    2.7430    3.8459 H         1 <0>         0.0996
     41 H11         0.3379   -2.2406    3.3937 H         1 <0>         0.1177
     42 H12         0.5419   -2.5746    5.8143 H         1 <0>         0.1353
     43 H13         0.4821   -0.6482    7.3429 H         1 <0>         0.1333
     44 H14         1.6709    3.0805    5.5742 H         1 <0>         0.1214
     45 H15         1.5999    5.0103    7.0986 H         1 <0>         0.1249
     46 H16         0.1100    4.9825    9.0562 H         1 <0>         0.1243
     47 H17        -1.3157    3.0270    9.4993 H         1 <0>         0.1263
     48 H18        -1.2646    1.0927    7.9800 H         1 <0>         0.1257
     49 H19         1.9903   -0.5357    0.9292 H         1 <0>         0.4343
@<TRIPOS>BOND
     1    1    2 1
     2    1   31 1
     3    1   32 1
     4    1   33 1
     5    2   11 ar
     6    2    3 ar
     7    3    4 ar
     8    3   28 1
     9    4    9 ar
    10    4    5 ar
    11    5    6 ar
    12    5   34 1
    13    6    7 ar
    14    6   27 1
    15    7    8 ar
    16    7   35 1
    17    8    9 ar
    18    8   36 1
    19    9   10 ar
    20   10   11 ar
    21   10   49 1
    22   11   12 1
    23   12   16 1
    24   12   13 1
    25   13   14 1
    26   13   37 1
    27   13   38 1
    28   14   15 1
    29   14   39 1
    30   14   40 1
    31   15   20 ar
    32   15   16 ar
    33   16   17 ar
    34   17   18 ar
    35   17   41 1
    36   18   19 ar
    37   18   42 1
    38   19   20 ar
    39   19   43 1
    40   20   21 1
    41   21   26 ar
    42   21   22 ar
    43   22   23 ar
    44   22   44 1
    45   23   24 ar
    46   23   45 1
    47   24   25 ar
    48   24   46 1
    49   25   26 ar
    50   25   47 1
    51   26   48 1
    52   28   29 2
    53   28   30 1
@<TRIPOS>MOLECULE
CHEMBL337130
   34    35     0     0     0
SMALL
USER_CHARGES

@<TRIPOS>ATOM
      1 C1          1.0827   -0.4515    0.7749 C.ar      1 <0>        -0.0517
      2 C2          2.2720    0.2502    0.7562 C.ar      1 <0>        -0.1212
      3 C3          2.3806    1.4098   -0.0005 C.ar      1 <0>         0.2160
      4 C4          1.2919    1.8598   -0.7362 C.ar      1 <0>        -0.1701
      5 C5          0.1054    1.1534   -0.7132 C.ar      1 <0>        -0.0507
      6 C6          0.0006   -0.0008    0.0413 C.ar      1 <0>        -0.2260
      7 C7         -1.2957   -0.7690    0.0640 C.3       1 <0>         0.5127
      8 F1         -2.1009   -0.2943    1.1048 F         1 <0>        -0.1824
      9 F2         -1.9605   -0.5982   -1.1551 F         1 <0>        -0.1825
     10 F3         -1.0290   -2.1278    0.2633 F         1 <0>        -0.1802
     11 N1          3.5833    2.1229   -0.0212 N.pl3     1 <0>        -0.6757
     12 C8          4.7688    1.4604    0.0666 C.2       1 <0>         0.5429
     13 O1          4.7898    0.1146    0.0598 O.3       1 <0>        -0.6131
     14 C9          5.9648    2.1777    0.1639 C.2       1 <0>        -0.4443
     15 C10         7.1923    1.4917    0.2548 C.2       1 <0>         0.4285
     16 C11         8.4816    2.2649    0.3597 C.3       1 <0>        -0.1561
     17 C12         9.3295    2.2256   -0.9226 C.3       1 <0>        -0.1185
     18 C13        10.5602    2.0890   -0.0108 C.3       1 <0>        -0.1419
     19 C14         9.6163    1.4811    1.0401 C.3       1 <0>        -0.1233
     20 O2          7.2112    0.2769    0.2487 O.2       1 <0>        -0.4977
     21 C15         5.9425    3.6095    0.1711 C.1       1 <0>         0.2999
     22 N2          5.9248    4.7453    0.1769 N.1       1 <0>        -0.5401
     23 H1          0.9989   -1.3557    1.3596 H         1 <0>         0.1322
     24 H2          3.1166   -0.1022    1.3297 H         1 <0>         0.1539
     25 H3          1.3730    2.7613   -1.3254 H         1 <0>         0.1307
     26 H4         -0.7416    1.5028   -1.2850 H         1 <0>         0.1309
     27 H5          3.5726    3.0898   -0.0982 H         1 <0>         0.4040
     28 H6          8.3418    3.2683    0.7618 H         1 <0>         0.0897
     29 H7          9.1449    1.3474   -1.5414 H         1 <0>         0.0831
     30 H8          9.3072    3.1563   -1.4895 H         1 <0>         0.0622
     31 H9         11.3057    1.3878   -0.3857 H         1 <0>         0.0632
     32 H10        10.9897    3.0449    0.2891 H         1 <0>         0.0739
     33 H11         9.8255    1.8108    2.0578 H         1 <0>         0.0597
     34 H12         9.5101    0.3994    0.9579 H         1 <0>         0.0919
@<TRIPOS>BOND
     1    1    6 ar
     2    1    2 ar
     3    1   23 1
     4    2    3 ar
     5    2   24 1
     6    3    4 ar
     7    3   11 1
     8    4    5 ar
     9    4   25 1
    10    5    6 ar
    11    5   26 1
    12    6    7 1
    13    7    8 1
    14    7    9 1
    15    7   10 1
    16   11   12 1
    17   11   27 1
    18   12   13 1
    19   12   14 2
    20   14   21 1
    21   14   15 1
    22   15   20 2
    23   15   16 1
    24   16   19 1
    25   16   17 1
    26   16   28 1
    27   17   18 1
    28   17   29 1
    29   17   30 1
    30   18   19 1
    31   18   31 1
    32   18   32 1
    33   19   33 1
    34   19   34 1
    35   21   22 3
@<TRIPOS>MOLECULE
CHEMBL337130__1
   35    36     0     0     0
SMALL
NO_CHARGES

@<TRIPOS>ATOM
      1 C1          1.0836   -0.4600    0.7496 C.ar      1 <0>        -0.0467
      2 C2          2.2727    0.2423    0.7377 C.ar      1 <0>        -0.1223
      3 C3          2.3807    1.4093   -0.0073 C.ar      1 <0>         0.1779
      4 C4          1.2919    1.8663   -0.7382 C.ar      1 <0>        -0.1439
      5 C5          0.1055    1.1593   -0.7221 C.ar      1 <0>        -0.0473
      6 C6          0.0012   -0.0023    0.0208 C.ar      1 <0>        -0.1972
      7 C7         -1.2948   -0.7712    0.0361 C.3       1 <0>         0.5099
      8 F1         -2.1000   -0.3071    1.0818 F         1 <0>        -0.1759
      9 F2         -1.9599   -0.5883   -1.1810 F         1 <0>        -0.1767
     10 F3         -1.0277   -2.1318    0.2217 F         1 <0>        -0.1758
     11 N1          3.5839    2.1235   -0.0212 N.am      1 <0>        -0.6699
     12 C8          4.7580    1.4674    0.0659 C.2       1 <0>         0.5271
     13 O1          4.7770    0.2547    0.0598 O.2       1 <0>        -0.4640
     14 C9          6.0473    2.2406    0.1708 C.3       1 <0>        -0.0575
     15 C10         7.2044    1.2789    0.2546 C.2       1 <0>         0.3768
     16 C11         8.4513    1.6640    1.0083 C.3       1 <0>        -0.1616
     17 C12         9.6516    1.9712    0.0974 C.3       1 <0>        -0.1228
     18 C13        10.5220    1.2319    1.1273 C.3       1 <0>        -0.1398
     19 C14         9.2540    0.4596    1.5277 C.3       1 <0>        -0.1237
     20 O2          7.1326    0.1995   -0.2822 O.2       1 <0>        -0.3837
     21 C15         6.2048    3.0954   -1.0172 C.1       1 <0>         0.2001
     22 N2          6.3263    3.7551   -1.9340 N.1       1 <0>        -0.3685
     23 H1          1.0003   -1.3700    1.3252 H         1 <0>         0.1425
     24 H2          3.1176   -0.1154    1.3074 H         1 <0>         0.1478
     25 H3          1.3726    2.7736   -1.3183 H         1 <0>         0.1400
     26 H4         -0.7417    1.5143   -1.2901 H         1 <0>         0.1427
     27 H5          3.5730    3.0907   -0.0934 H         1 <0>         0.4169
     28 H6          8.2696    2.4269    1.7654 H         1 <0>         0.1212
     29 H7          9.6034    1.4734   -0.8711 H         1 <0>         0.0868
     30 H8          9.8781    3.0343    0.0171 H         1 <0>         0.0792
     31 H9         11.2919    0.6045    0.6782 H         1 <0>         0.0758
     32 H10        10.9077    1.8773    1.9165 H         1 <0>         0.0872
     33 H11         9.1594    0.3024    2.6021 H         1 <0>         0.0783
     34 H12         9.0970   -0.4515    0.9502 H         1 <0>         0.0960
     35 H13         6.0262    2.8626    1.0657 H         1 <0>         0.1712
@<TRIPOS>BOND
     1    1    6 ar
     2    1    2 ar
     3    1   23 1
     4    2    3 ar
     5    2   24 1
     6    3    4 ar
     7    3   11 1
     8    4    5 ar
     9    4   25 1
    10    5    6 ar
    11    5   26 1
    12    6    7 1
    13    7    8 1
    14    7    9 1
    15    7   10 1
    16   11   12 am
    17   11   27 1
    18   12   13 2
    19   12   14 1
    20   14   21 1
    21   14   35 1
    22   14   15 1
    23   15   20 2
    24   15   16 1
    25   16   19 1
    26   16   17 1
    27   16   28 1
    28   17   18 1
    29   17   29 1
    30   17   30 1
    31   18   19 1
    32   18   31 1
    33   18   32 1
    34   19   33 1
    35   19   34 1
    36   21   22 3
@<TRIPOS>MOLECULE
CHEMBL142705
   27    28     0     0     0
SMALL
USER_CHARGES

@<TRIPOS>ATOM
      1 C1          1.0901   -0.4491   -0.7510 C.ar      1 <0>        -0.0678
      2 C2          2.2523    0.3039   -0.7340 C.ar      1 <0>        -0.1308
      3 C3          2.2942    1.4650    0.0177 C.ar      1 <0>         0.1346
      4 N1          1.2449    1.8597    0.7140 N.ar      1 <0>        -0.4608
      5 C4          0.1203    1.1721    0.7246 C.ar      1 <0>         0.0702
      6 C5          0.0017   -0.0035   -0.0048 C.ar      1 <0>         0.1401
      7 N2         -1.1940   -0.7300    0.0095 N.pl3     1 <0>        -0.6682
      8 C6         -1.1675   -2.0859   -0.1007 C.2       1 <0>         0.5443
      9 O1          0.0104   -2.7371   -0.1156 O.3       1 <0>        -0.6154
     10 C7         -2.3639   -2.8028   -0.1985 C.2       1 <0>        -0.4376
     11 C8         -2.3365   -4.2069   -0.3126 C.2       1 <0>         0.4460
     12 C9         -3.6260   -4.9796   -0.4180 C.3       1 <0>        -0.1993
     13 C10        -3.7535   -6.2579    0.4130 C.3       1 <0>        -0.1600
     14 C11        -3.5766   -6.3462   -1.1041 C.3       1 <0>        -0.1614
     15 O2         -1.2732   -4.7947   -0.3261 O.2       1 <0>        -0.4994
     16 C12        -3.6170   -2.1100   -0.1826 C.1       1 <0>         0.2998
     17 N3         -4.6112   -1.5604   -0.1700 N.1       1 <0>        -0.5377
     18 Cl1         3.7469    2.4151    0.0456 Cl        1 <0>        -0.0504
     19 H1          1.0278   -1.3572   -1.3323 H         1 <0>         0.1647
     20 H2          3.1160   -0.0116   -1.3004 H         1 <0>         0.1426
     21 H3         -0.7175    1.5267    1.3067 H         1 <0>         0.1611
     22 H4         -4.5243   -4.3783   -0.5581 H         1 <0>         0.1032
     23 H5         -2.9047   -6.5400    1.0360 H         1 <0>         0.0973
     24 H6         -4.7358   -6.4977    0.8200 H         1 <0>         0.0897
     25 H7         -4.4426   -6.6442   -1.6953 H         1 <0>         0.0891
     26 H8         -2.6114   -6.6864   -1.4793 H         1 <0>         0.1005
     27 H9         -2.0417   -0.2670    0.0981 H         1 <0>         0.4056
@<TRIPOS>BOND
     1    1    6 ar
     2    1    2 ar
     3    1   19 1
     4    2    3 ar
     5    2   20 1
     6    3    4 ar
     7    3   18 1
     8    4    5 ar
     9    5    6 ar
    10    5   21 1
    11    6    7 1
    12    7    8 1
    13    7   27 1
    14    8    9 1
    15    8   10 2
    16   10   16 1
    17   10   11 1
    18   11   15 2
    19   11   12 1
    20   12   14 1
    21   12   13 1
    22   12   22 1
    23   13   14 1
    24   13   23 1
    25   13   24 1
    26   14   25 1
    27   14   26 1
    28   16   17 3
@<TRIPOS>MOLECULE
CHEMBL141126
   39    41     0     0     0
SMALL
USER_CHARGES

@<TRIPOS>ATOM
      1 C1          2.7618    1.3097    3.5449 C.ar      1 <0>        -0.1616
      2 C2          2.9163    2.0374    2.3794 C.ar      1 <0>        -0.0861
      3 C3          3.1975    1.3903    1.1918 C.ar      1 <0>        -0.1533
      4 C4          3.3250    0.0088    1.1692 C.ar      1 <0>         0.1280
      5 C5          3.1696   -0.7191    2.3403 C.ar      1 <0>        -0.1929
      6 C6          2.8884   -0.0671    3.5251 C.ar      1 <0>        -0.0828
      7 O1          3.6012   -0.6302    0.0022 O.3       1 <0>        -0.2555
      8 C7          3.6692   -1.9879    0.0186 C.ar      1 <0>         0.0349
      9 C8          2.5193   -2.7420   -0.1668 C.ar      1 <0>        -0.1035
     10 C9          2.5876   -4.1209   -0.1504 C.ar      1 <0>        -0.1561
     11 C10         3.8076   -4.7531    0.0518 C.ar      1 <0>         0.1894
     12 C11         4.9581   -3.9976    0.2373 C.ar      1 <0>        -0.1078
     13 C12         4.8893   -2.6188    0.2150 C.ar      1 <0>        -0.1013
     14 N1          3.8775   -6.1512    0.0691 N.pl3     1 <0>        -0.6744
     15 C13         4.9992   -6.7816   -0.3722 C.2       1 <0>         0.5452
     16 O2          5.9973   -6.0693   -0.9275 O.3       1 <0>        -0.6143
     17 C14         5.1155   -8.1696   -0.2488 C.2       1 <0>        -0.4407
     18 C15         6.2773   -8.8225   -0.7058 C.2       1 <0>         0.4455
     19 C16         6.4027  -10.3184   -0.5729 C.3       1 <0>        -0.1992
     20 C17         7.0652  -11.0769   -1.7247 C.3       1 <0>        -0.1604
     21 C18         7.8085  -10.8969   -0.3995 C.3       1 <0>        -0.1611
     22 O3          7.1782   -8.1796   -1.2071 O.2       1 <0>        -0.5004
     23 C19         4.0538   -8.9274    0.3420 C.1       1 <0>         0.3012
     24 N2          3.2115   -9.5285    0.8107 N.1       1 <0>        -0.5414
     25 H1          2.5464    1.8179    4.4732 H         1 <0>         0.1209
     26 H2          2.8166    3.1126    2.3975 H         1 <0>         0.1267
     27 H3          3.3177    1.9592    0.2817 H         1 <0>         0.1295
     28 H4          3.2679   -1.7945    2.3253 H         1 <0>         0.1311
     29 H5          2.7673   -0.6332    4.4369 H         1 <0>         0.1232
     30 H6          1.5706   -2.2503   -0.3237 H         1 <0>         0.1263
     31 H7          1.6925   -4.7078   -0.2943 H         1 <0>         0.1274
     32 H8          5.9070   -4.4886    0.3950 H         1 <0>         0.1544
     33 H9          5.7846   -2.0312    0.3548 H         1 <0>         0.1282
     34 H10         3.1260   -6.6704    0.3957 H         1 <0>         0.4025
     35 H11         5.5863  -10.8137   -0.0473 H         1 <0>         0.1026
     36 H12         6.6846  -12.0715   -1.9572 H         1 <0>         0.0892
     37 H13         7.4104  -10.4940   -2.5786 H         1 <0>         0.0980
     38 H14         8.6426  -10.1955   -0.3816 H         1 <0>         0.0996
     39 H15         7.9168  -11.7730    0.2398 H         1 <0>         0.0889
@<TRIPOS>BOND
     1    1    6 ar
     2    1    2 ar
     3    1   25 1
     4    2    3 ar
     5    2   26 1
     6    3    4 ar
     7    3   27 1
     8    4    5 ar
     9    4    7 1
    10    5    6 ar
    11    5   28 1
    12    6   29 1
    13    7    8 1
    14    8   13 ar
    15    8    9 ar
    16    9   10 ar
    17    9   30 1
    18   10   11 ar
    19   10   31 1
    20   11   12 ar
    21   11   14 1
    22   12   13 ar
    23   12   32 1
    24   13   33 1
    25   14   15 1
    26   14   34 1
    27   15   16 1
    28   15   17 2
    29   17   23 1
    30   17   18 1
    31   18   22 2
    32   18   19 1
    33   19   21 1
    34   19   20 1
    35   19   35 1
    36   20   21 1
    37   20   36 1
    38   20   37 1
    39   21   38 1
    40   21   39 1
    41   23   24 3
@<TRIPOS>MOLECULE
CHEMBL141126__1
   40    42     0     0     0
SMALL
NO_CHARGES

@<TRIPOS>ATOM
      1 C1          2.4320    1.2818    3.4822 C.ar      1 <0>        -0.1529
      2 C2          2.8102    2.0227    2.3777 C.ar      1 <0>        -0.0824
      3 C3          3.1864    1.3841    1.2120 C.ar      1 <0>        -0.1458
      4 C4          3.1850   -0.0021    1.1502 C.ar      1 <0>         0.1205
      5 C5          2.8054   -0.7432    2.2602 C.ar      1 <0>        -0.1964
      6 C6          2.4296   -0.0996    3.4233 C.ar      1 <0>        -0.0822
      7 O1          3.5542   -0.6327    0.0046 O.3       1 <0>        -0.2571
      8 C7          3.6337   -1.9898    0.0202 C.ar      1 <0>         0.0744
      9 C8          2.4752   -2.7527   -0.0103 C.ar      1 <0>        -0.1134
     10 C9          2.5554   -4.1311    0.0055 C.ar      1 <0>        -0.1032
     11 C10         3.7957   -4.7536    0.0516 C.ar      1 <0>         0.1424
     12 C11         4.9547   -3.9896    0.0817 C.ar      1 <0>        -0.1244
     13 C12         4.8735   -2.6114    0.0610 C.ar      1 <0>        -0.1005
     14 N1          3.8776   -6.1521    0.0682 N.am      1 <0>        -0.6674
     15 C13         2.9864   -6.8876   -0.6255 C.2       1 <0>         0.5268
     16 O2          2.0665   -6.3434   -1.1991 O.2       1 <0>        -0.4687
     17 C14         3.1326   -8.3862   -0.6885 C.3       1 <0>        -0.0505
     18 C15         2.0169   -8.9653   -1.5196 C.2       1 <0>         0.3953
     19 C16         1.5028  -10.3519   -1.2295 C.3       1 <0>        -0.2232
     20 C17        -0.0046  -10.5857   -1.3485 C.3       1 <0>        -0.1424
     21 C18         0.9440  -11.1582   -2.4037 C.3       1 <0>        -0.1477
     22 O3          1.5348   -8.3183   -2.4181 O.2       1 <0>        -0.3890
     23 C19         4.4276   -8.7275   -1.2995 C.1       1 <0>         0.2020
     24 N2          5.4270   -8.9910   -1.7710 N.1       1 <0>        -0.3695
     25 H1          2.1422    1.7830    4.3939 H         1 <0>         0.1254
     26 H2          2.8111    3.1016    2.4263 H         1 <0>         0.1316
     27 H3          3.4810    1.9633    0.3493 H         1 <0>         0.1326
     28 H4          2.8031   -1.8223    2.2147 H         1 <0>         0.1291
     29 H5          2.1338   -0.6760    4.2874 H         1 <0>         0.1259
     30 H6          1.5105   -2.2684   -0.0462 H         1 <0>         0.1368
     31 H7          1.6535   -4.7248   -0.0176 H         1 <0>         0.1482
     32 H8          5.9197   -4.4733    0.1176 H         1 <0>         0.1365
     33 H9          5.7751   -2.0171    0.0802 H         1 <0>         0.1388
     34 H10         4.5757   -6.5910    0.5789 H         1 <0>         0.4151
     35 H11         2.0374  -10.8986   -0.4527 H         1 <0>         0.1321
     36 H12        -0.4619  -11.2862   -0.6498 H         1 <0>         0.1105
     37 H13        -0.6244   -9.7366   -1.6366 H         1 <0>         0.1067
     38 H14         0.9483  -10.6857   -3.3859 H         1 <0>         0.1058
     39 H15         1.1107  -12.2353   -2.3991 H         1 <0>         0.1096
     40 H16         3.0865   -8.7984    0.3195 H         1 <0>         0.1707
@<TRIPOS>BOND
     1    1    6 ar
     2    1    2 ar
     3    1   25 1
     4    2    3 ar
     5    2   26 1
     6    3    4 ar
     7    3   27 1
     8    4    5 ar
     9    4    7 1
    10    5    6 ar
    11    5   28 1
    12    6   29 1
    13    7    8 1
    14    8   13 ar
    15    8    9 ar
    16    9   10 ar
    17    9   30 1
    18   10   11 ar
    19   10   31 1
    20   11   12 ar
    21   11   14 1
    22   12   13 ar
    23   12   32 1
    24   13   33 1
    25   14   15 am
    26   14   34 1
    27   15   16 2
    28   15   17 1
    29   17   23 1
    30   17   40 1
    31   17   18 1
    32   18   22 2
    33   18   19 1
    34   19   21 1
    35   19   20 1
    36   19   35 1
    37   20   21 1
    38   20   36 1
    39   20   37 1
    40   21   38 1
    41   21   39 1
    42   23   24 3
@<TRIPOS>MOLECULE
CHEMBL387254
   38    39     0     0     0
SMALL
USER_CHARGES

@<TRIPOS>ATOM
      1 C1         -0.0965    1.3265    1.4985 C.3       1 <0>        -0.1543
      2 C2         -0.1088   -0.1958    1.3457 C.3       1 <0>         0.0616
      3 O1         -1.3929   -0.6177    0.8820 O.3       1 <0>        -0.3428
      4 C3         -1.5716   -1.9411    0.6939 C.2       1 <0>         0.5377
      5 O2         -0.6610   -2.7155    0.9178 O.2       1 <0>        -0.5345
      6 C4         -2.8638   -2.4464    0.2194 C.2       1 <0>        -0.2470
      7 C5         -3.0093   -3.7820   -0.0937 C.2       1 <0>         0.2927
      8 N1         -1.9243   -4.5978   -0.1086 N.pl3     1 <0>        -0.6088
      9 C6         -2.0842   -5.9695   -0.3246 C.ar      1 <0>         0.1442
     10 C7         -3.3536   -6.4978   -0.5300 C.ar      1 <0>        -0.1627
     11 C8         -3.5152   -7.8530   -0.7443 C.ar      1 <0>        -0.0773
     12 C9         -2.4171   -8.6904   -0.7558 C.ar      1 <0>        -0.1293
     13 C10        -1.1408   -8.1696   -0.5508 C.ar      1 <0>        -0.0060
     14 C11        -0.9760   -6.8032   -0.3400 C.ar      1 <0>        -0.1388
     15 C12         0.0400   -9.0683   -0.5624 C.ar      1 <0>        -0.0544
     16 C13         1.3158   -8.5493   -0.3519 C.ar      1 <0>        -0.1069
     17 C14         2.4105   -9.3897   -0.3632 C.ar      1 <0>        -0.1178
     18 C15         2.2428  -10.7450   -0.5831 C.ar      1 <0>        -0.1133
     19 C16         0.9786  -11.2656   -0.7931 C.ar      1 <0>        -0.1181
     20 C17        -0.1237  -10.4351   -0.7782 C.ar      1 <0>        -0.1053
     21 C18        -3.9746   -1.5534    0.0810 C.1       1 <0>         0.2765
     22 N2         -4.8559   -0.8449   -0.0287 N.1       1 <0>        -0.4252
     23 H1          0.8830    1.6483    1.8521 H         1 <0>         0.0815
     24 H2         -0.3050    1.7901    0.5343 H         1 <0>         0.0672
     25 H3         -0.8588    1.6256    2.2178 H         1 <0>         0.0672
     26 H4          0.6535   -0.4949    0.6263 H         1 <0>         0.0698
     27 H5          0.0997   -0.6595    2.3099 H         1 <0>         0.0701
     28 H6         -3.9864   -4.1786   -0.3269 H         1 <0>         0.1790
     29 H7         -1.0381   -4.2288    0.0307 H         1 <0>         0.4320
     30 H8         -4.2156   -5.8472   -0.5216 H         1 <0>         0.1319
     31 H9         -4.5034   -8.2589   -0.9030 H         1 <0>         0.1354
     32 H10        -2.5475   -9.7493   -0.9233 H         1 <0>         0.1317
     33 H11         0.0116   -6.3943   -0.1851 H         1 <0>         0.1343
     34 H12         1.4479   -7.4912   -0.1805 H         1 <0>         0.1254
     35 H13         3.3999   -8.9884   -0.2005 H         1 <0>         0.1261
     36 H14         3.1021  -11.3991   -0.5912 H         1 <0>         0.1247
     37 H15         0.8534  -12.3245   -0.9647 H         1 <0>         0.1264
     38 H16        -1.1108  -10.8432   -0.9375 H         1 <0>         0.1274
@<TRIPOS>BOND
     1    1    2 1
     2    1   23 1
     3    1   24 1
     4    1   25 1
     5    2    3 1
     6    2   26 1
     7    2   27 1
     8    3    4 1
     9    4    5 2
    10    4    6 1
    11    6    7 2
    12    6   21 1
    13    7    8 1
    14    7   28 1
    15    8    9 1
    16    8   29 1
    17    9   14 ar
    18    9   10 ar
    19   10   11 ar
    20   10   30 1
    21   11   12 ar
    22   11   31 1
    23   12   13 ar
    24   12   32 1
    25   13   14 ar
    26   13   15 1
    27   14   33 1
    28   15   20 ar
    29   15   16 ar
    30   16   17 ar
    31   16   34 1
    32   17   18 ar
    33   17   35 1
    34   18   19 ar
    35   18   36 1
    36   19   20 ar
    37   19   37 1
    38   20   38 1
    39   21   22 3
@<TRIPOS>MOLECULE
CHEMBL387254__1
   38    39     0     0     0
SMALL
USER_CHARGES

@<TRIPOS>ATOM
      1 C1         -0.0187    1.5258    0.0104 C.3       1 <0>        -0.1541
      2 C2          0.0021   -0.0041    0.0020 C.3       1 <0>         0.0632
      3 O1         -1.3386   -0.4987    0.0122 O.3       1 <0>        -0.3488
      4 C3         -1.4971   -1.8379    0.0065 C.2       1 <0>         0.5418
      5 O2         -0.5227   -2.5656   -0.0067 O.2       1 <0>        -0.5193
      6 C4         -2.8443   -2.4168    0.0162 C.2       1 <0>        -0.2363
      7 C5         -3.0065   -3.7868    0.0104 C.2       1 <0>         0.2899
      8 N1         -4.2537   -4.3226    0.0195 N.pl3     1 <0>        -0.6246
      9 C6         -4.4180   -5.7107    0.0136 C.ar      1 <0>         0.1466
     10 C7         -3.3044   -6.5427    0.0043 C.ar      1 <0>        -0.1586
     11 C8         -3.4632   -7.9152   -0.0011 C.ar      1 <0>        -0.0756
     12 C9         -4.7286   -8.4681    0.0028 C.ar      1 <0>        -0.1282
     13 C10        -5.8507   -7.6418    0.0121 C.ar      1 <0>        -0.0049
     14 C11        -5.6922   -6.2585    0.0228 C.ar      1 <0>        -0.1432
     15 C12        -7.2111   -8.2346    0.0157 C.ar      1 <0>        -0.0550
     16 C13        -8.3336   -7.4091    0.0192 C.ar      1 <0>        -0.1074
     17 C14        -9.5965   -7.9659    0.0221 C.ar      1 <0>        -0.1178
     18 C15        -9.7490   -9.3407    0.0216 C.ar      1 <0>        -0.1128
     19 C16        -8.6382  -10.1649    0.0186 C.ar      1 <0>        -0.1176
     20 C17        -7.3706   -9.6188    0.0098 C.ar      1 <0>        -0.1048
     21 C18        -3.9916   -1.5600    0.0318 C.1       1 <0>         0.2589
     22 N2         -4.9018   -0.8803    0.0441 N.1       1 <0>        -0.4226
     23 H1          1.0039    1.9031    0.0027 H         1 <0>         0.0812
     24 H2         -0.5459    1.8868   -0.8726 H         1 <0>         0.0664
     25 H3         -0.5289    1.8773    0.9072 H         1 <0>         0.0663
     26 H4          0.5123   -0.3556   -0.8948 H         1 <0>         0.0701
     27 H5          0.5293   -0.3651    0.8851 H         1 <0>         0.0701
     28 H6         -2.1412   -4.4329   -0.0013 H         1 <0>         0.1912
     29 H7         -5.0309   -3.7423    0.0300 H         1 <0>         0.4178
     30 H8         -2.3127   -6.1152    0.0009 H         1 <0>         0.1358
     31 H9         -2.5950   -8.5575   -0.0086 H         1 <0>         0.1371
     32 H10        -4.8486   -9.5414   -0.0018 H         1 <0>         0.1325
     33 H11        -6.5587   -5.6141    0.0345 H         1 <0>         0.1327
     34 H12        -8.2156   -6.3356    0.0200 H         1 <0>         0.1241
     35 H13       -10.4672   -7.3270    0.0252 H         1 <0>         0.1261
     36 H14       -10.7391   -9.7721    0.0238 H         1 <0>         0.1251
     37 H15        -8.7630  -11.2376    0.0185 H         1 <0>         0.1269
     38 H16        -6.5040  -10.2632    0.0027 H         1 <0>         0.1278
@<TRIPOS>BOND
     1    1    2 1
     2    1   23 1
     3    1   24 1
     4    1   25 1
     5    2    3 1
     6    2   26 1
     7    2   27 1
     8    3    4 1
     9    4    5 2
    10    4    6 1
    11    6    7 2
    12    6   21 1
    13    7    8 1
    14    7   28 1
    15    8    9 1
    16    8   29 1
    17    9   14 ar
    18    9   10 ar
    19   10   11 ar
    20   10   30 1
    21   11   12 ar
    22   11   31 1
    23   12   13 ar
    24   12   32 1
    25   13   14 ar
    26   13   15 1
    27   14   33 1
    28   15   20 ar
    29   15   16 ar
    30   16   17 ar
    31   16   34 1
    32   17   18 ar
    33   17   35 1
    34   18   19 ar
    35   18   36 1
    36   19   20 ar
    37   19   37 1
    38   20   38 1
    39   21   22 3
@<TRIPOS>MOLECULE
CHEMBL36981
   50    52     0     0     0
SMALL
USER_CHARGES

@<TRIPOS>ATOM
      1 C1         -0.2597    1.5912   -0.1974 C.3       1 <0>        -0.1540
      2 C2         -0.2594    0.0612   -0.2059 C.3       1 <0>        -0.1253
      3 C3          0.5022   -0.4419   -1.4338 C.3       1 <0>        -0.1219
      4 C4          0.5025   -1.9719   -1.4423 C.3       1 <0>        -0.1197
      5 C5          1.2641   -2.4749   -2.6702 C.3       1 <0>        -0.1149
      6 C6          1.2644   -4.0049   -2.6787 C.3       1 <0>        -0.0791
      7 C7          2.0146   -4.5004   -3.8881 C.ar      1 <0>        -0.0774
      8 C8          1.3398   -4.7182   -5.0759 C.ar      1 <0>        -0.1260
      9 C9          2.0215   -5.1719   -6.1867 C.ar      1 <0>        -0.0764
     10 C10         3.3927   -5.4107   -6.1102 C.ar      1 <0>        -0.0426
     11 C11         4.0674   -5.1894   -4.9106 C.ar      1 <0>        -0.0984
     12 C12         3.3763   -4.7302   -3.8079 C.ar      1 <0>        -0.1234
     13 C13         4.1308   -5.8987   -7.3002 C.ar      1 <0>         0.2079
     14 C14         5.4507   -5.4674   -7.5019 C.ar      1 <0>        -0.1309
     15 C15         6.1525   -5.9182   -8.6128 C.ar      1 <0>        -0.0371
     16 C16         5.4571   -6.8324   -9.5205 C.ar      1 <0>        -0.0696
     17 C17         6.0802   -7.3401  -10.6644 C.ar      1 <0>        -0.1023
     18 C18         5.3951   -8.1910  -11.4843 C.ar      1 <0>         0.0802
     19 C19         4.0806   -8.5593  -11.1933 C.ar      1 <0>        -0.1358
     20 C20         3.4466   -8.0828  -10.0882 C.ar      1 <0>        -0.0706
     21 C21         4.1217   -7.2035   -9.2201 C.ar      1 <0>         0.1191
     22 N1          3.5267   -6.7253   -8.1269 N.ar      1 <0>        -0.4848
     23 F1          5.9967   -8.6814  -12.5901 F         1 <0>        -0.1419
     24 C22         7.5425   -5.4923   -8.8679 C.2       1 <0>         0.5326
     25 O1          8.4744   -6.1865   -8.4869 O.co2     1 <0>        -0.6701
     26 O2          7.7622   -4.4452   -9.4602 O.co2     1 <0>        -0.6699
     27 C23         6.1007   -4.5238   -6.5231 C.3       1 <0>        -0.1095
     28 H1          0.7674    1.9545   -0.1620 H         1 <0>         0.0536
     29 H2         -0.7444    1.9594   -1.1016 H         1 <0>         0.0532
     30 H3         -0.8022    1.9495    0.6774 H         1 <0>         0.0517
     31 H4          0.2253   -0.3071    0.6983 H         1 <0>         0.0598
     32 H5         -1.2864   -0.3022   -0.2413 H         1 <0>         0.0595
     33 H6          0.0175   -0.0736   -2.3380 H         1 <0>         0.0611
     34 H7          1.5293   -0.0785   -1.3984 H         1 <0>         0.0617
     35 H8          0.9872   -2.3401   -0.5381 H         1 <0>         0.0610
     36 H9         -0.5245   -2.3352   -1.4777 H         1 <0>         0.0605
     37 H10         0.7794   -2.1067   -3.5744 H         1 <0>         0.0635
     38 H11         2.2912   -2.1116   -2.6348 H         1 <0>         0.0645
     39 H12         1.7491   -4.3731   -1.7745 H         1 <0>         0.0704
     40 H13         0.2374   -4.3682   -2.7141 H         1 <0>         0.0698
     41 H14         0.2773   -4.5332   -5.1340 H         1 <0>         0.1207
     42 H15         1.4936   -5.3420   -7.1134 H         1 <0>         0.1274
     43 H16         5.1297   -5.3731   -4.8455 H         1 <0>         0.1381
     44 H17         3.8988   -4.5542   -2.8792 H         1 <0>         0.1230
     45 H18         7.0969   -7.0608  -10.8985 H         1 <0>         0.1437
     46 H19         3.5584   -9.2332  -11.8563 H         1 <0>         0.1376
     47 H20         2.4291   -8.3774   -9.8777 H         1 <0>         0.1410
     48 H21         6.5595   -5.0960   -5.7167 H         1 <0>         0.0717
     49 H22         6.8654   -3.9395   -7.0347 H         1 <0>         0.0773
     50 H23         5.3472   -3.8534   -6.1096 H         1 <0>         0.0714
@<TRIPOS>BOND
     1    1    2 1
     2    1   28 1
     3    1   29 1
     4    1   30 1
     5    2    3 1
     6    2   31 1
     7    2   32 1
     8    3    4 1
     9    3   33 1
    10    3   34 1
    11    4    5 1
    12    4   35 1
    13    4   36 1
    14    5    6 1
    15    5   37 1
    16    5   38 1
    17    6    7 1
    18    6   39 1
    19    6   40 1
    20    7   12 ar
    21    7    8 ar
    22    8    9 ar
    23    8   41 1
    24    9   10 ar
    25    9   42 1
    26   10   11 ar
    27   10   13 1
    28   11   12 ar
    29   11   43 1
    30   12   44 1
    31   13   22 ar
    32   13   14 ar
    33   14   15 ar
    34   14   27 1
    35   15   16 ar
    36   15   24 1
    37   16   21 ar
    38   16   17 ar
    39   17   18 ar
    40   17   45 1
    41   18   19 ar
    42   18   23 1
    43   19   20 ar
    44   19   46 1
    45   20   21 ar
    46   20   47 1
    47   21   22 ar
    48   24   25 2
    49   24   26 1
    50   27   48 1
    51   27   49 1
    52   27   50 1
@<TRIPOS>MOLECULE
CHEMBL324668
   42    46     0     0     0
SMALL
USER_CHARGES

@<TRIPOS>ATOM
      1 C1         -0.0717    1.2518    0.4159 C.ar      1 <0>        -0.1226
      2 C2          1.1008    1.9821    0.3439 C.ar      1 <0>        -0.1179
      3 C3          2.3172    1.3341    0.2723 C.ar      1 <0>        -0.1120
      4 C4          2.3627   -0.0590    0.2726 C.ar      1 <0>        -0.0385
      5 C5          1.1779   -0.7897    0.3453 C.ar      1 <0>        -0.1118
      6 C6         -0.0327   -0.1310    0.4166 C.ar      1 <0>        -0.1165
      7 C7          3.6667   -0.7611    0.1954 C.ar      1 <0>        -0.0546
      8 C8          4.8529   -0.0300    0.1280 C.ar      1 <0>        -0.0881
      9 C9          6.0622   -0.6815    0.0533 C.ar      1 <0>        -0.0851
     10 C10         6.1103   -2.0790    0.0331 C.ar      1 <0>         0.0221
     11 C11         4.9243   -2.8030    0.1134 C.ar      1 <0>        -0.4268
     12 C12         3.7124   -2.1553    0.1957 C.ar      1 <0>        -0.0383
     13 S1          4.9808   -4.5667    0.1233 S.o       1 <0>         1.3361
     14 O1          5.2658   -4.8939    1.4764 O.2       1 <0>        -0.8342
     15 C13         6.4328   -4.9269   -0.9051 C.3       1 <0>        -0.4008
     16 C14         7.5905   -4.0751   -0.4492 C.ar      1 <0>        -0.1199
     17 C15         7.4333   -2.7494   -0.0373 C.ar      1 <0>         0.1873
     18 N1          8.4821   -2.0178    0.3236 N.ar      1 <0>        -0.4814
     19 C16         9.7266   -2.4822    0.3436 C.ar      1 <0>         0.1260
     20 C17        10.8055   -1.6659    0.7353 C.ar      1 <0>        -0.0695
     21 C18        12.0657   -2.1770    0.7570 C.ar      1 <0>        -0.1318
     22 C19        12.3129   -3.5017    0.3934 C.ar      1 <0>         0.0845
     23 C20        11.2916   -4.3203    0.0020 C.ar      1 <0>        -0.1014
     24 C21         9.9853   -3.8254   -0.0316 C.ar      1 <0>        -0.0699
     25 C22         8.8574   -4.6548   -0.4520 C.ar      1 <0>        -0.0235
     26 C23         9.0539   -6.0580   -0.8653 C.2       1 <0>         0.5312
     27 O2          9.2414   -6.3281   -2.0431 O.co2     1 <0>        -0.6656
     28 O3          9.0293   -6.9507   -0.0297 O.co2     1 <0>        -0.6647
     29 F1         13.5761   -3.9795    0.4284 F         1 <0>        -0.1394
     30 H1         -1.0211    1.7631    0.4762 H         1 <0>         0.1209
     31 H2          1.0643    3.0615    0.3434 H         1 <0>         0.1226
     32 H3          3.2320    1.9053    0.2158 H         1 <0>         0.1253
     33 H4          1.2073   -1.8693    0.3456 H         1 <0>         0.1288
     34 H5         -0.9512   -0.6961    0.4733 H         1 <0>         0.1246
     35 H6          4.8217    1.0495    0.1342 H         1 <0>         0.1300
     36 H7          6.9783   -0.1113    0.0096 H         1 <0>         0.1394
     37 H8          2.7976   -2.7260    0.2567 H         1 <0>         0.1374
     38 H9          6.6955   -5.9802   -0.8075 H         1 <0>         0.1337
     39 H10         6.2049   -4.7034   -1.9473 H         1 <0>         0.1355
     40 H11        10.6327   -0.6378    1.0171 H         1 <0>         0.1430
     41 H12        12.8889   -1.5472    1.0604 H         1 <0>         0.1402
     42 H13        11.4925   -5.3436   -0.2789 H         1 <0>         0.1457
@<TRIPOS>BOND
     1    1    6 ar
     2    1    2 ar
     3    1   30 1
     4    2    3 ar
     5    2   31 1
     6    3    4 ar
     7    3   32 1
     8    4    5 ar
     9    4    7 1
    10    5    6 ar
    11    5   33 1
    12    6   34 1
    13    7   12 ar
    14    7    8 ar
    15    8    9 ar
    16    8   35 1
    17    9   10 ar
    18    9   36 1
    19   10   17 1
    20   10   11 ar
    21   11   12 ar
    22   11   13 1
    23   12   37 1
    24   13   14 2
    25   13   15 1
    26   15   16 1
    27   15   38 1
    28   15   39 1
    29   16   25 ar
    30   16   17 ar
    31   17   18 ar
    32   18   19 ar
    33   19   24 ar
    34   19   20 ar
    35   20   21 ar
    36   20   40 1
    37   21   22 ar
    38   21   41 1
    39   22   23 ar
    40   22   29 1
    41   23   24 ar
    42   23   42 1
    43   24   25 ar
    44   25   26 1
    45   26   27 2
    46   26   28 1
@<TRIPOS>MOLECULE
CHEMBL324668__1
   42    46     0     0     0
SMALL
USER_CHARGES

@<TRIPOS>ATOM
      1 C1          0.2086    1.6622    0.9261 C.ar      1 <0>        -0.1226
      2 C2          1.4063    2.3360    0.7684 C.ar      1 <0>        -0.1179
      3 C3          2.5841    1.6311    0.6259 C.ar      1 <0>        -0.1120
      4 C4          2.5653    0.2374    0.6411 C.ar      1 <0>        -0.0385
      5 C5          1.3554   -0.4362    0.8004 C.ar      1 <0>        -0.1118
      6 C6          0.1838    0.2792    0.9421 C.ar      1 <0>        -0.1165
      7 C7          3.8276   -0.5258    0.4880 C.ar      1 <0>        -0.0546
      8 C8          5.0391    0.1483    0.3338 C.ar      1 <0>        -0.0881
      9 C9          6.2103   -0.5598    0.1944 C.ar      1 <0>        -0.0851
     10 C10         6.1961   -1.9580    0.2184 C.ar      1 <0>         0.0220
     11 C11         4.9828   -2.6250    0.3608 C.ar      1 <0>        -0.4267
     12 C12         3.8088   -1.9205    0.5032 C.ar      1 <0>        -0.0384
     13 S1          4.9546   -4.3895    0.3578 S.o       1 <0>         1.3361
     14 O1          4.9746   -4.7312   -1.0213 O.2       1 <0>        -0.8341
     15 C13         6.5505   -4.8167    1.1103 C.3       1 <0>        -0.4008
     16 C14         7.6447   -4.0217    0.4436 C.ar      1 <0>        -0.1199
     17 C15         7.4772   -2.6905    0.0541 C.ar      1 <0>         0.1872
     18 N1          8.4758   -2.0101   -0.4984 N.ar      1 <0>        -0.4814
     19 C16         9.6729   -2.5334   -0.7395 C.ar      1 <0>         0.1259
     20 C17        10.6994   -1.7699   -1.3287 C.ar      1 <0>        -0.0695
     21 C18        11.9093   -2.3406   -1.5745 C.ar      1 <0>        -0.1318
     22 C19        12.1559   -3.6755   -1.2500 C.ar      1 <0>         0.0845
     23 C20        11.1856   -4.4442   -0.6720 C.ar      1 <0>        -0.1014
     24 C21         9.9325   -3.8869   -0.4043 C.ar      1 <0>        -0.0698
     25 C22         8.8627   -4.6611    0.2224 C.ar      1 <0>        -0.0235
     26 C23         9.0658   -6.0712    0.6081 C.2       1 <0>         0.5313
     27 O2          8.8483   -6.9633   -0.1995 O.co2     1 <0>        -0.6646
     28 O3          9.4517   -6.3474    1.7351 O.co2     1 <0>        -0.6657
     29 F1         13.3674   -4.2135   -1.5107 F         1 <0>        -0.1394
     30 H1         -0.7102    2.2180    1.0418 H         1 <0>         0.1209
     31 H2          1.4197    3.4159    0.7563 H         1 <0>         0.1226
     32 H3          3.5186    2.1582    0.5024 H         1 <0>         0.1252
     33 H4          1.3349   -1.5160    0.8126 H         1 <0>         0.1288
     34 H5         -0.7541   -0.2417    1.0659 H         1 <0>         0.1246
     35 H6          5.0576    1.2280    0.3235 H         1 <0>         0.1300
     36 H7          7.1446   -0.0337    0.0654 H         1 <0>         0.1394
     37 H8          2.8735   -2.4472    0.6225 H         1 <0>         0.1375
     38 H9          6.5259   -4.5808    2.1742 H         1 <0>         0.1355
     39 H10         6.7419   -5.8815    0.9775 H         1 <0>         0.1337
     40 H11        10.5265   -0.7349   -1.5841 H         1 <0>         0.1430
     41 H12        12.6920   -1.7511   -2.0286 H         1 <0>         0.1403
     42 H13        11.3859   -5.4759   -0.4233 H         1 <0>         0.1457
@<TRIPOS>BOND
     1    1    6 ar
     2    1    2 ar
     3    1   30 1
     4    2    3 ar
     5    2   31 1
     6    3    4 ar
     7    3   32 1
     8    4    5 ar
     9    4    7 1
    10    5    6 ar
    11    5   33 1
    12    6   34 1
    13    7   12 ar
    14    7    8 ar
    15    8    9 ar
    16    8   35 1
    17    9   10 ar
    18    9   36 1
    19   10   17 1
    20   10   11 ar
    21   11   12 ar
    22   11   13 1
    23   12   37 1
    24   13   14 2
    25   13   15 1
    26   15   16 1
    27   15   38 1
    28   15   39 1
    29   16   25 ar
    30   16   17 ar
    31   17   18 ar
    32   18   19 ar
    33   19   24 ar
    34   19   20 ar
    35   20   21 ar
    36   20   40 1
    37   21   22 ar
    38   21   41 1
    39   22   23 ar
    40   22   29 1
    41   23   24 ar
    42   23   42 1
    43   24   25 ar
    44   25   26 1
    45   26   27 2
    46   26   28 1
@<TRIPOS>MOLECULE
CHEMBL50499
   46    50     0     0     0
SMALL
USER_CHARGES

@<TRIPOS>ATOM
      1 C1         -1.9261    0.7048    0.5026 C.3       1 <0>        -0.1056
      2 C2         -0.9286   -0.3946    0.2434 C.ar      1 <0>        -0.1396
      3 C3         -1.0699   -1.2225   -0.8635 C.ar      1 <0>        -0.0191
      4 C4         -0.0633   -2.2686   -1.0513 C.ar      1 <0>        -0.0714
      5 C5         -0.1190   -3.1508   -2.1347 C.ar      1 <0>        -0.1001
      6 C6          0.8416   -4.1120   -2.2715 C.ar      1 <0>         0.0850
      7 C7          1.8768   -4.2236   -1.3425 C.ar      1 <0>        -0.1301
      8 C8          1.9584   -3.3803   -0.2779 C.ar      1 <0>        -0.0703
      9 C9          0.9865   -2.3775   -0.1053 C.ar      1 <0>         0.1353
     10 N1          1.0416   -1.5358    0.9294 N.ar      1 <0>        -0.4973
     11 C10         0.1521   -0.5873    1.1126 C.ar      1 <0>         0.3803
     12 N2          0.2850    0.2543    2.2160 N.pl3     1 <0>        -0.4245
     13 C11         0.2321    1.6233    2.1745 C.2       1 <0>         0.0701
     14 C12         0.3952    2.1241    3.4099 C.2       1 <0>        -0.1962
     15 C13         0.5660    0.9873    4.3153 C.ar      1 <0>        -0.0863
     16 C14         0.4836   -0.1659    3.5158 C.ar      1 <0>         0.1139
     17 C15         0.6061   -1.4189    4.1057 C.ar      1 <0>        -0.1039
     18 C16         0.8041   -1.5285    5.4665 C.ar      1 <0>        -0.1050
     19 C17         0.8838   -0.3998    6.2646 C.ar      1 <0>        -0.1288
     20 C18         0.7726    0.8651    5.7005 C.ar      1 <0>        -0.0139
     21 C19         0.8561    2.0740    6.5534 C.ar      1 <0>        -0.0325
     22 C20         1.6986    3.1260    6.1958 C.ar      1 <0>        -0.1029
     23 C21         1.7722    4.2492    6.9940 C.ar      1 <0>        -0.1207
     24 C22         1.0123    4.3327    8.1470 C.ar      1 <0>        -0.1245
     25 C23         0.1748    3.2922    8.5070 C.ar      1 <0>        -0.1212
     26 C24         0.0884    2.1664    7.7137 C.ar      1 <0>        -0.1080
     27 F1          0.7886   -4.9648   -3.3180 F         1 <0>        -0.1392
     28 C25        -2.1894   -1.0545   -1.8108 C.2       1 <0>         0.5329
     29 O1         -2.0667   -0.3156   -2.7775 O.co2     1 <0>        -0.6651
     30 O2         -3.2396   -1.6541   -1.6289 O.co2     1 <0>        -0.6652
     31 H1         -1.5678    1.6329    0.0572 H         1 <0>         0.0723
     32 H2         -2.8857    0.4365    0.0607 H         1 <0>         0.0817
     33 H3         -2.0463    0.8404    1.5775 H         1 <0>         0.0666
     34 H4         -0.9167   -3.0728   -2.8585 H         1 <0>         0.1467
     35 H5          2.6250   -4.9918   -1.4704 H         1 <0>         0.1407
     36 H6          2.7661   -3.4802    0.4320 H         1 <0>         0.1433
     37 H7          0.0824    2.2116    1.2812 H         1 <0>         0.1727
     38 H8          0.3997    3.1688    3.6835 H         1 <0>         0.1512
     39 H9          0.5458   -2.3089    3.4969 H         1 <0>         0.1214
     40 H10         0.8976   -2.5066    5.9148 H         1 <0>         0.1260
     41 H11         1.0391   -0.5029    7.3284 H         1 <0>         0.1226
     42 H12         2.2925    3.0618    5.2960 H         1 <0>         0.1249
     43 H13         2.4245    5.0645    6.7183 H         1 <0>         0.1213
     44 H14         1.0735    5.2136    8.7688 H         1 <0>         0.1187
     45 H15        -0.4161    3.3630    9.4083 H         1 <0>         0.1208
     46 H16        -0.5695    1.3567    7.9932 H         1 <0>         0.1230
@<TRIPOS>BOND
     1    1    2 1
     2    1   31 1
     3    1   32 1
     4    1   33 1
     5    2   11 ar
     6    2    3 ar
     7    3    4 ar
     8    3   28 1
     9    4    9 ar
    10    4    5 ar
    11    5    6 ar
    12    5   34 1
    13    6    7 ar
    14    6   27 1
    15    7    8 ar
    16    7   35 1
    17    8    9 ar
    18    8   36 1
    19    9   10 ar
    20   10   11 ar
    21   11   12 1
    22   12   16 1
    23   12   13 1
    24   13   14 2
    25   13   37 1
    26   14   15 1
    27   14   38 1
    28   15   20 ar
    29   15   16 ar
    30   16   17 ar
    31   17   18 ar
    32   17   39 1
    33   18   19 ar
    34   18   40 1
    35   19   20 ar
    36   19   41 1
    37   20   21 1
    38   21   26 ar
    39   21   22 ar
    40   22   23 ar
    41   22   42 1
    42   23   24 ar
    43   23   43 1
    44   24   25 ar
    45   24   44 1
    46   25   26 ar
    47   25   45 1
    48   26   46 1
    49   28   29 2
    50   28   30 1
@<TRIPOS>MOLECULE
CHEMBL49331
   45    49     0     0     0
SMALL
USER_CHARGES

@<TRIPOS>ATOM
      1 C1         -1.9732    0.6484    0.5509 C.3       1 <0>        -0.1091
      2 C2         -0.9505   -0.4212    0.2661 C.ar      1 <0>        -0.1377
      3 C3         -1.0640   -1.2152   -0.8686 C.ar      1 <0>        -0.0155
      4 C4         -0.0337   -2.2331   -1.0804 C.ar      1 <0>        -0.0681
      5 C5         -0.0603   -3.0803   -2.1925 C.ar      1 <0>        -0.1009
      6 C6          0.9218   -4.0160   -2.3508 C.ar      1 <0>         0.0884
      7 C7          1.9505   -4.1362   -1.4156 C.ar      1 <0>        -0.1294
      8 C8          2.0041   -3.3267   -0.3233 C.ar      1 <0>        -0.0688
      9 C9          1.0094   -2.3508   -0.1279 C.ar      1 <0>         0.1344
     10 N1          1.0371   -1.5422    0.9338 N.ar      1 <0>        -0.4921
     11 C10         0.1255   -0.6199    1.1393 C.ar      1 <0>         0.3773
     12 N2          0.2300    0.1879    2.2720 N.pl3     1 <0>        -0.4341
     13 C11         0.1434    1.5484    2.3066 C.2       1 <0>         0.2821
     14 N3          0.2854    1.9728    3.5285 N.2       1 <0>        -0.4824
     15 C12         0.4725    0.9186    4.3607 C.ar      1 <0>         0.0621
     16 C13         0.4350   -0.2418    3.5712 C.ar      1 <0>         0.0649
     17 C14         0.5946   -1.4880    4.1602 C.ar      1 <0>        -0.0882
     18 C15         0.7876   -1.5898    5.5232 C.ar      1 <0>        -0.1059
     19 C16         0.8243   -0.4556    6.3161 C.ar      1 <0>        -0.1134
     20 C17         0.6745    0.8033    5.7485 C.ar      1 <0>        -0.0040
     21 C18         0.7119    2.0153    6.6004 C.ar      1 <0>        -0.0352
     22 C19         1.5207    3.0947    6.2468 C.ar      1 <0>        -0.0844
     23 C20         1.5511    4.2208    7.0438 C.ar      1 <0>        -0.1223
     24 C21         0.7812    4.2801    8.1916 C.ar      1 <0>        -0.1218
     25 C22        -0.0228    3.2122    8.5478 C.ar      1 <0>        -0.1244
     26 C23        -0.0658    2.0831    7.7557 C.ar      1 <0>        -0.1070
     27 F1          0.8969   -4.8351   -3.4250 F         1 <0>        -0.1381
     28 C24        -2.1779   -1.0397   -1.8211 C.2       1 <0>         0.5325
     29 O1         -2.0456   -0.3022   -2.7876 O.co2     1 <0>        -0.6632
     30 O2         -3.2332   -1.6317   -1.6436 O.co2     1 <0>        -0.6638
     31 H1         -1.6305    1.5976    0.1392 H         1 <0>         0.0750
     32 H2         -2.9229    0.3747    0.0913 H         1 <0>         0.0862
     33 H3         -2.1059    0.7465    1.6283 H         1 <0>         0.0640
     34 H4         -0.8527   -2.9955   -2.9214 H         1 <0>         0.1479
     35 H5          2.7161   -4.8839   -1.5609 H         1 <0>         0.1418
     36 H6          2.8070   -3.4330    0.3912 H         1 <0>         0.1441
     37 H7         -0.0193    2.1808    1.4463 H         1 <0>         0.2173
     38 H8          0.5674   -2.3796    3.5514 H         1 <0>         0.1247
     39 H9          0.9108   -2.5629    5.9751 H         1 <0>         0.1318
     40 H10         0.9760   -0.5498    7.3812 H         1 <0>         0.1301
     41 H11         2.1225    3.0493    5.3512 H         1 <0>         0.1229
     42 H12         2.1774    5.0573    6.7711 H         1 <0>         0.1208
     43 H13         0.8082    5.1635    8.8123 H         1 <0>         0.1185
     44 H14        -0.6212    3.2640    9.4454 H         1 <0>         0.1206
     45 H15        -0.6976    1.2519    8.0322 H         1 <0>         0.1222
@<TRIPOS>BOND
     1    1    2 1
     2    1   31 1
     3    1   32 1
     4    1   33 1
     5    2   11 ar
     6    2    3 ar
     7    3    4 ar
     8    3   28 1
     9    4    9 ar
    10    4    5 ar
    11    5    6 ar
    12    5   34 1
    13    6    7 ar
    14    6   27 1
    15    7    8 ar
    16    7   35 1
    17    8    9 ar
    18    8   36 1
    19    9   10 ar
    20   10   11 ar
    21   11   12 1
    22   12   16 1
    23   12   13 1
    24   13   14 2
    25   13   37 1
    26   14   15 1
    27   15   20 ar
    28   15   16 ar
    29   16   17 ar
    30   17   18 ar
    31   17   38 1
    32   18   19 ar
    33   18   39 1
    34   19   20 ar
    35   19   40 1
    36   20   21 1
    37   21   26 ar
    38   21   22 ar
    39   22   23 ar
    40   22   41 1
    41   23   24 ar
    42   23   42 1
    43   24   25 ar
    44   24   43 1
    45   25   26 ar
    46   25   44 1
    47   26   45 1
    48   28   29 2
    49   28   30 1
@<TRIPOS>MOLECULE
CHEMBL200699
   42    44     0     0     0
SMALL
USER_CHARGES

@<TRIPOS>ATOM
      1 C1          1.2065   -1.2533    3.6191 C.3       1 <0>        -0.1532
      2 C2          0.7596   -1.7225    2.2331 C.3       1 <0>         0.0544
      3 O1         -0.5519   -2.2832    2.3199 O.3       1 <0>        -0.3153
      4 C3         -1.1004   -2.7511    1.1679 C.ar      1 <0>         0.1320
      5 C4         -0.3868   -2.6768   -0.0208 C.ar      1 <0>        -0.2047
      6 C5         -0.9404   -3.1518   -1.1947 C.ar      1 <0>        -0.0771
      7 C6         -2.2062   -3.7030   -1.1920 C.ar      1 <0>        -0.1406
      8 C7         -2.9292   -3.7814   -0.0030 C.ar      1 <0>        -0.0046
      9 C8         -2.3687   -3.3073    1.1808 C.ar      1 <0>        -0.1374
     10 C9         -4.2897   -4.3728    0.0027 C.ar      1 <0>         0.0077
     11 C10        -5.0139   -4.4453    1.1915 C.ar      1 <0>        -0.1502
     12 C11        -6.2804   -4.9956    1.1952 C.ar      1 <0>         0.1411
     13 C12        -6.8334   -5.4779    0.0132 C.ar      1 <0>         0.0894
     14 C13        -6.1118   -5.4062   -1.1740 C.ar      1 <0>         0.1424
     15 C14        -4.8474   -4.8512   -1.1818 C.ar      1 <0>        -0.1496
     16 F1         -6.6503   -5.8755   -2.3208 F         1 <0>        -0.1199
     17 N1         -8.1168   -6.0361    0.0187 N.am      1 <0>        -0.6985
     18 C15        -9.1940   -5.2510   -0.1802 C.2       1 <0>         0.5582
     19 O2         -9.0474   -4.0753   -0.4530 O.2       1 <0>        -0.4329
     20 C16       -10.5526   -5.8188   -0.0667 C.2       1 <0>        -0.1820
     21 C17       -10.7778   -7.1490    0.2472 C.2       1 <0>        -0.1437
     22 C18       -12.0515   -7.5973    0.3340 C.2       1 <0>        -0.2925
     23 S1        -12.9978   -6.2514   -0.0023 S.3       1 <0>         0.1961
     24 C19       -11.7083   -5.0489   -0.2632 C.2       1 <0>        -0.1084
     25 C20       -11.8251   -3.6274   -0.5973 C.2       1 <0>         0.5376
     26 O3        -10.8170   -2.9477   -0.7420 O.co2     1 <0>        -0.6063
     27 O4        -12.9307   -3.1190   -0.7319 O.co2     1 <0>        -0.6815
     28 F2         -6.9826   -5.0660    2.3472 F         1 <0>        -0.1200
     29 H1          2.2069   -0.8257    3.5529 H         1 <0>         0.0779
     30 H2          0.5124   -0.4985    3.9885 H         1 <0>         0.0673
     31 H3          1.2186   -2.1017    4.3035 H         1 <0>         0.0665
     32 H4          0.7476   -0.8742    1.5488 H         1 <0>         0.0624
     33 H5          1.4538   -2.4774    1.8638 H         1 <0>         0.0617
     34 H6          0.6036   -2.2462   -0.0282 H         1 <0>         0.1281
     35 H7         -0.3814   -3.0914   -2.1168 H         1 <0>         0.1291
     36 H8         -2.6362   -4.0730   -2.1110 H         1 <0>         0.1311
     37 H9         -2.9231   -3.3698    2.1055 H         1 <0>         0.1368
     38 H10        -4.5846   -4.0716    2.1093 H         1 <0>         0.1488
     39 H11        -4.2893   -4.7916   -2.1045 H         1 <0>         0.1489
     40 H12        -8.2309   -6.9881    0.1656 H         1 <0>         0.4036
     41 H13        -9.9484   -7.8189    0.4199 H         1 <0>         0.1207
     42 H14       -12.3852   -8.5977    0.5669 H         1 <0>         0.1766
@<TRIPOS>BOND
     1    1    2 1
     2    1   29 1
     3    1   30 1
     4    1   31 1
     5    2    3 1
     6    2   32 1
     7    2   33 1
     8    3    4 1
     9    4    9 ar
    10    4    5 ar
    11    5    6 ar
    12    5   34 1
    13    6    7 ar
    14    6   35 1
    15    7    8 ar
    16    7   36 1
    17    8    9 ar
    18    8   10 1
    19    9   37 1
    20   10   15 ar
    21   10   11 ar
    22   11   12 ar
    23   11   38 1
    24   12   13 ar
    25   12   28 1
    26   13   14 ar
    27   13   17 1
    28   14   15 ar
    29   14   16 1
    30   15   39 1
    31   17   18 am
    32   17   40 1
    33   18   19 2
    34   18   20 1
    35   20   24 2
    36   20   21 1
    37   21   22 2
    38   21   41 1
    39   22   23 1
    40   22   42 1
    41   23   24 1
    42   24   25 1
    43   25   26 2
    44   25   27 1
@<TRIPOS>MOLECULE
CHEMBL200895
   42    44     0     0     0
SMALL
USER_CHARGES

@<TRIPOS>ATOM
      1 C1         -3.7149   -1.2863   -0.8012 C.3       1 <0>        -0.1533
      2 C2         -2.2850   -1.7409   -0.5017 C.3       1 <0>         0.0544
      3 O1         -1.6947   -2.2705   -1.6904 O.3       1 <0>        -0.3152
      4 C3         -0.4163   -2.7221   -1.5961 C.ar      1 <0>         0.1320
      5 C4          0.2534   -2.6615   -0.3814 C.ar      1 <0>        -0.2041
      6 C5          1.5535   -3.1196   -0.2808 C.ar      1 <0>        -0.0771
      7 C6          2.1937   -3.6397   -1.3879 C.ar      1 <0>        -0.1402
      8 C7          1.5286   -3.7042   -2.6109 C.ar      1 <0>        -0.0059
      9 C8          0.2162   -3.2479   -2.7103 C.ar      1 <0>        -0.1370
     10 C9          2.2145   -4.2622   -3.8022 C.ar      1 <0>         0.0099
     11 C10         1.5500   -4.3207   -5.0261 C.ar      1 <0>        -0.1505
     12 C11         2.1899   -4.8399   -6.1342 C.ar      1 <0>         0.1428
     13 C12         3.4969   -5.3044   -6.0294 C.ar      1 <0>         0.0859
     14 C13         4.1612   -5.2471   -4.8086 C.ar      1 <0>         0.1439
     15 C14         3.5259   -4.7231   -3.7000 C.ar      1 <0>        -0.1499
     16 F1          5.4304   -5.6991   -4.7086 F         1 <0>        -0.1194
     17 N1          4.1443   -5.8305   -7.1537 N.am      1 <0>        -0.6978
     18 C15         4.8429   -5.0178   -7.9709 C.2       1 <0>         0.5706
     19 O2          4.9864   -3.8444   -7.6842 O.2       1 <0>        -0.4387
     20 C16         5.4323   -5.5502   -9.2109 C.2       1 <0>        -0.1983
     21 C17         5.3590   -6.8264   -9.6752 C.2       1 <0>        -0.0186
     22 O3          6.0235   -6.9046  -10.8334 O.3       1 <0>        -0.1798
     23 C18         6.5474   -5.7233  -11.1738 C.2       1 <0>        -0.0298
     24 C19         6.2239   -4.8075  -10.2174 C.2       1 <0>        -0.1714
     25 C20         6.5871   -3.3849  -10.1897 C.2       1 <0>         0.5314
     26 O4          7.2512   -2.9050  -11.0988 O.co2     1 <0>        -0.7012
     27 O5          6.2258   -2.6791   -9.2574 O.co2     1 <0>        -0.6421
     28 F2          1.5461   -4.8972   -7.3205 F         1 <0>        -0.1195
     29 H1         -3.6972   -0.5161   -1.5723 H         1 <0>         0.0674
     30 H2         -4.3009   -2.1365   -1.1503 H         1 <0>         0.0666
     31 H3         -4.1652   -0.8824    0.1055 H         1 <0>         0.0780
     32 H4         -1.6990   -0.8907   -0.1526 H         1 <0>         0.0625
     33 H5         -2.3026   -2.5111    0.2694 H         1 <0>         0.0618
     34 H6         -0.2430   -2.2548    0.4873 H         1 <0>         0.1283
     35 H7          2.0700   -3.0703    0.6663 H         1 <0>         0.1293
     36 H8          3.2099   -3.9963   -1.3062 H         1 <0>         0.1312
     37 H9         -0.3052   -3.3001   -3.6547 H         1 <0>         0.1369
     38 H10         0.5351   -3.9605   -5.1077 H         1 <0>         0.1494
     39 H11         4.0434   -4.6747   -2.7533 H         1 <0>         0.1495
     40 H12         4.0900   -6.7800   -7.3445 H         1 <0>         0.4034
     41 H13         4.8478   -7.6436   -9.1879 H         1 <0>         0.2012
     42 H14         7.1283   -5.5258  -12.0626 H         1 <0>         0.2133
@<TRIPOS>BOND
     1    1    2 1
     2    1   29 1
     3    1   30 1
     4    1   31 1
     5    2    3 1
     6    2   32 1
     7    2   33 1
     8    3    4 1
     9    4    9 ar
    10    4    5 ar
    11    5    6 ar
    12    5   34 1
    13    6    7 ar
    14    6   35 1
    15    7    8 ar
    16    7   36 1
    17    8    9 ar
    18    8   10 1
    19    9   37 1
    20   10   15 ar
    21   10   11 ar
    22   11   12 ar
    23   11   38 1
    24   12   13 ar
    25   12   28 1
    26   13   14 ar
    27   13   17 1
    28   14   15 ar
    29   14   16 1
    30   15   39 1
    31   17   18 am
    32   17   40 1
    33   18   19 2
    34   18   20 1
    35   20   24 1
    36   20   21 2
    37   21   22 1
    38   21   41 1
    39   22   23 1
    40   23   24 2
    41   23   42 1
    42   24   25 1
    43   25   26 2
    44   25   27 1
@<TRIPOS>MOLECULE
CHEMBL142444
   64    68     0     0     0
SMALL
USER_CHARGES

@<TRIPOS>ATOM
      1 C1          0.4817    3.3729   -1.2349 C.ar      1 <0>        -0.1735
      2 C2          1.7557    3.8090   -0.9036 C.ar      1 <0>        -0.0542
      3 C3          2.8069    2.9107   -1.0017 C.ar      1 <0>        -0.1658
      4 C4          2.5522    1.6193   -1.4235 C.ar      1 <0>         0.1208
      5 N1          1.3275    1.2394   -1.7309 N.ar      1 <0>        -0.4846
      6 C5          0.3037    2.0666   -1.6490 C.ar      1 <0>         0.1079
      7 C6          4.2098    3.3368   -0.6533 C.3       1 <0>         0.1667
      8 N2          4.4565    3.0886    0.7693 N.am      1 <0>        -0.7142
      9 C7          5.6530    3.3944    1.3092 C.2       1 <0>         0.6087
     10 O1          6.5275    3.8763    0.6156 O.2       1 <0>        -0.5224
     11 C8          5.9017    3.1441    2.7436 C.2       1 <0>        -0.0155
     12 C9          7.0945    3.4171    3.4424 C.2       1 <0>        -0.1178
     13 C10         6.8597    3.0235    4.7344 C.2       1 <0>        -0.0296
     14 N3          5.5774    2.5424    4.7721 N.pl3     1 <0>        -0.1992
     15 N4          5.0450    2.6291    3.6063 N.2       1 <0>        -0.2224
     16 C11         4.9410    2.0368    5.9116 C.ar      1 <0>         0.1208
     17 C12         4.7785    2.8411    7.0324 C.ar      1 <0>        -0.0561
     18 C13         4.1499    2.3399    8.1551 C.ar      1 <0>        -0.0963
     19 C14         3.6822    1.0372    8.1644 C.ar      1 <0>        -0.0149
     20 C15         3.8428    0.2337    7.0490 C.ar      1 <0>        -0.1010
     21 C16         4.4656    0.7317    5.9216 C.ar      1 <0>        -0.0752
     22 Cl1         2.8934    0.4099    9.5779 Cl        1 <0>        -0.0540
     23 C17         7.8018    3.1019    5.8614 C.2       1 <0>         0.5868
     24 O2          7.5065    2.6144    6.9361 O.2       1 <0>        -0.5071
     25 N5          8.9923    3.7137    5.7032 N.am      1 <0>        -0.6466
     26 C18         9.9175    3.7281    6.7547 C.ar      1 <0>         0.0781
     27 C19         9.4756    3.6572    8.0693 C.ar      1 <0>        -0.0736
     28 C20        10.3875    3.6718    9.1058 C.ar      1 <0>        -0.1824
     29 C21        11.7468    3.7570    8.8337 C.ar      1 <0>         0.2127
     30 C22        12.1886    3.8274    7.5188 C.ar      1 <0>        -0.1812
     31 C23        11.2769    3.8076    6.4823 C.ar      1 <0>        -0.0895
     32 N6         12.6708    3.7723    9.8840 N.pl3     1 <0>        -0.6284
     33 C24        14.0931    4.0354    9.6259 C.3       1 <0>         0.1205
     34 C25        14.5527    5.1868   10.5258 C.3       1 <0>        -0.1372
     35 C26        14.2302    4.8498   11.9834 C.3       1 <0>        -0.1196
     36 C27        12.7179    4.6826   12.1475 C.3       1 <0>        -0.1377
     37 C28        12.2365    3.5315   11.2667 C.3       1 <0>         0.1197
     38 H1         -0.3613    4.0444   -1.1660 H         1 <0>         0.1390
     39 H2          1.9249    4.8245   -0.5772 H         1 <0>         0.1374
     40 H3          3.3657    0.9133   -1.5026 H         1 <0>         0.1576
     41 H4         -0.6854    1.7191   -1.9085 H         1 <0>         0.1588
     42 H5          4.9216    2.7667   -1.2503 H         1 <0>         0.0859
     43 H6          4.3292    4.3998   -0.8627 H         1 <0>         0.0841
     44 H7          3.7587    2.7041    1.3227 H         1 <0>         0.4092
     45 H8          8.0023    3.8454    3.0440 H         1 <0>         0.1780
     46 H9          5.1439    3.8574    7.0259 H         1 <0>         0.1367
     47 H10         4.0233    2.9648    9.0268 H         1 <0>         0.1467
     48 H11         3.4773   -0.7825    7.0590 H         1 <0>         0.1472
     49 H12         4.5867    0.1057    5.0499 H         1 <0>         0.1416
     50 H13         9.2083    4.1442    4.8612 H         1 <0>         0.4126
     51 H14         8.4186    3.5910    8.2809 H         1 <0>         0.1478
     52 H15        10.0438    3.6174   10.1282 H         1 <0>         0.1261
     53 H16        13.2456    3.8940    7.3072 H         1 <0>         0.1274
     54 H17        11.6207    3.8579    5.4597 H         1 <0>         0.1261
     55 H18        14.6764    3.1420    9.8491 H         1 <0>         0.0613
     56 H19        14.2298    4.3118    8.5804 H         1 <0>         0.0825
     57 H20        15.6277    5.3288   10.4144 H         1 <0>         0.0732
     58 H21        14.0330    6.1014   10.2403 H         1 <0>         0.0663
     59 H22        14.7304    3.9219   12.2607 H         1 <0>         0.0633
     60 H23        14.5785    5.6566   12.6282 H         1 <0>         0.0645
     61 H24        12.4869    4.4656   13.1904 H         1 <0>         0.0734
     62 H25        12.2154    5.6019   11.8467 H         1 <0>         0.0662
     63 H26        11.1486    3.4754   11.3035 H         1 <0>         0.0832
     64 H27        12.6650    2.5961   11.6267 H         1 <0>         0.0614
@<TRIPOS>BOND
     1    1    6 ar
     2    1    2 ar
     3    1   38 1
     4    2    3 ar
     5    2   39 1
     6    3    4 ar
     7    3    7 1
     8    4    5 ar
     9    4   40 1
    10    5    6 ar
    11    6   41 1
    12    7    8 1
    13    7   42 1
    14    7   43 1
    15    8    9 am
    16    8   44 1
    17    9   10 2
    18    9   11 1
    19   11   15 2
    20   11   12 1
    21   12   13 2
    22   12   45 1
    23   13   14 1
    24   13   23 1
    25   14   15 1
    26   14   16 1
    27   16   21 ar
    28   16   17 ar
    29   17   18 ar
    30   17   46 1
    31   18   19 ar
    32   18   47 1
    33   19   20 ar
    34   19   22 1
    35   20   21 ar
    36   20   48 1
    37   21   49 1
    38   23   24 2
    39   23   25 am
    40   25   26 1
    41   25   50 1
    42   26   31 ar
    43   26   27 ar
    44   27   28 ar
    45   27   51 1
    46   28   29 ar
    47   28   52 1
    48   29   30 ar
    49   29   32 1
    50   30   31 ar
    51   30   53 1
    52   31   54 1
    53   32   37 1
    54   32   33 1
    55   33   34 1
    56   33   55 1
    57   33   56 1
    58   34   35 1
    59   34   57 1
    60   34   58 1
    61   35   36 1
    62   35   59 1
    63   35   60 1
    64   36   37 1
    65   36   61 1
    66   36   62 1
    67   37   63 1
    68   37   64 1
@<TRIPOS>MOLECULE
CHEMBL519160
   34    35     0     0     0
SMALL
USER_CHARGES

@<TRIPOS>ATOM
      1 C1         -0.7630    1.4496    0.0573 C.3       1 <0>        -0.1904
      2 C2         -0.9470   -0.0412    0.1785 C.2       1 <0>         0.4132
      3 C3         -0.3465   -0.7409    1.2439 C.2       1 <0>        -0.4501
      4 C4          0.4387   -0.0354    2.2116 C.1       1 <0>         0.3012
      5 N1          1.0616    0.5243    2.9792 N.1       1 <0>        -0.5433
      6 C5         -0.5173   -2.1238    1.3564 C.2       1 <0>         0.5446
      7 O1         -1.2553   -2.7870    0.4468 O.3       1 <0>        -0.6160
      8 N2          0.0627   -2.7996    2.3854 N.pl3     1 <0>        -0.6763
      9 C6         -0.0080   -4.1943    2.4333 C.ar      1 <0>         0.1897
     10 C7          0.0027   -4.9307    1.2544 C.ar      1 <0>        -0.1173
     11 C8         -0.0666   -6.3068    1.2994 C.ar      1 <0>        -0.0862
     12 C9         -0.1474   -6.9598    2.5284 C.ar      1 <0>        -0.0956
     13 C10        -0.1580   -6.2193    3.7095 C.ar      1 <0>        -0.0866
     14 C11        -0.0833   -4.8437    3.6601 C.ar      1 <0>        -0.1665
     15 C12        -0.2225   -8.4404    2.5792 C.ar      1 <0>        -0.0205
     16 C13        -0.2067   -9.1825    1.3997 C.ar      1 <0>        -0.1193
     17 C14        -0.2763  -10.5598    1.4530 C.ar      1 <0>        -0.1163
     18 C15        -0.3622  -11.2038    2.6742 C.ar      1 <0>        -0.1336
     19 C16        -0.3783  -10.4724    3.8481 C.ar      1 <0>        -0.1177
     20 C17        -0.3034   -9.0949    3.8070 C.ar      1 <0>        -0.1212
     21 O2         -1.6133   -0.6398   -0.6426 O.2       1 <0>        -0.5081
     22 H1          0.1217    1.6588   -0.5442 H         1 <0>         0.0716
     23 H2         -1.6395    1.8862   -0.4216 H         1 <0>         0.0659
     24 H3         -0.6380    1.8822    1.0499 H         1 <0>         0.0610
     25 H4          0.5252   -2.3131    3.0856 H         1 <0>         0.4011
     26 H5          0.0650   -4.4243    0.3025 H         1 <0>         0.1454
     27 H6         -0.0586   -6.8785    0.3831 H         1 <0>         0.1224
     28 H7         -0.2210   -6.7232    4.6626 H         1 <0>         0.1211
     29 H8         -0.0870   -4.2698    4.5750 H         1 <0>         0.1211
     30 H9         -0.1404   -8.6806    0.4456 H         1 <0>         0.1257
     31 H10        -0.2641  -11.1358    0.5395 H         1 <0>         0.1204
     32 H11        -0.4173  -12.2818    2.7112 H         1 <0>         0.1175
     33 H12        -0.4459  -10.9803    4.7988 H         1 <0>         0.1194
     34 H13        -0.3119   -8.5250    4.7243 H         1 <0>         0.1235
@<TRIPOS>BOND
     1    1    2 1
     2    1   22 1
     3    1   23 1
     4    1   24 1
     5    2    3 1
     6    2   21 2
     7    3    4 1
     8    3    6 2
     9    4    5 3
    10    6    7 1
    11    6    8 1
    12    8    9 1
    13    8   25 1
    14    9   14 ar
    15    9   10 ar
    16   10   11 ar
    17   10   26 1
    18   11   12 ar
    19   11   27 1
    20   12   13 ar
    21   12   15 1
    22   13   14 ar
    23   13   28 1
    24   14   29 1
    25   15   20 ar
    26   15   16 ar
    27   16   17 ar
    28   16   30 1
    29   17   18 ar
    30   17   31 1
    31   18   19 ar
    32   18   32 1
    33   19   20 ar
    34   19   33 1
    35   20   34 1
@<TRIPOS>MOLECULE
CHEMBL519160__1
   35    36     0     0     0
SMALL
NO_CHARGES

@<TRIPOS>ATOM
      1 C1         -0.3259    0.8074    1.3535 C.3       1 <0>        -0.1964
      2 C2          0.0312   -0.6458    1.1747 C.2       1 <0>         0.3655
      3 C3          1.3289   -1.0265    0.5098 C.3       1 <0>        -0.0598
      4 C4          2.3852   -1.1466    1.5280 C.1       1 <0>         0.2025
      5 N1          3.2003   -1.2393    2.3138 N.1       1 <0>        -0.3724
      6 C5          1.1620   -2.3459   -0.1990 C.2       1 <0>         0.5249
      7 O1          0.0944   -2.9205   -0.1673 O.2       1 <0>        -0.4705
      8 N2          2.1992   -2.8873   -0.8680 N.am      1 <0>        -0.6672
      9 C6          2.0743   -4.1555   -1.4437 C.ar      1 <0>         0.1400
     10 C7          0.8599   -4.5528   -1.9904 C.ar      1 <0>        -0.1138
     11 C8          0.7343   -5.8028   -2.5580 C.ar      1 <0>        -0.0910
     12 C9          1.8268   -6.6684   -2.5838 C.ar      1 <0>        -0.0549
     13 C10         3.0440   -6.2675   -2.0353 C.ar      1 <0>        -0.0913
     14 C11         3.1664   -5.0145   -1.4733 C.ar      1 <0>        -0.1363
     15 C12         1.6940   -8.0141   -3.1937 C.ar      1 <0>        -0.0450
     16 C13         0.4793   -8.4144   -3.7473 C.ar      1 <0>        -0.1112
     17 C14         0.3616   -9.6674   -4.3137 C.ar      1 <0>        -0.1167
     18 C15         1.4464  -10.5255   -4.3322 C.ar      1 <0>        -0.1191
     19 C16         2.6543  -10.1337   -3.7839 C.ar      1 <0>        -0.1173
     20 C17         2.7852   -8.8807   -3.2203 C.ar      1 <0>        -0.1120
     21 O2         -0.7225   -1.5051    1.5642 O.2       1 <0>        -0.3927
     22 H1          0.4692    1.4300    0.9434 H         1 <0>         0.0873
     23 H2         -1.2590    1.0191    0.8314 H         1 <0>         0.1053
     24 H3         -0.4462    1.0240    2.4149 H         1 <0>         0.1012
     25 H4          3.0323   -2.3973   -0.9502 H         1 <0>         0.4136
     26 H5          0.0138   -3.8818   -1.9701 H         1 <0>         0.1426
     27 H6         -0.2098   -6.1114   -2.9821 H         1 <0>         0.1311
     28 H7          3.8917   -6.9365   -2.0542 H         1 <0>         0.1313
     29 H8          4.1104   -4.7019   -1.0522 H         1 <0>         0.1289
     30 H9         -0.3685   -7.7455   -3.7327 H         1 <0>         0.1258
     31 H10        -0.5792   -9.9786   -4.7430 H         1 <0>         0.1249
     32 H11         1.3497  -11.5053   -4.7762 H         1 <0>         0.1231
     33 H12         3.4979  -10.8078   -3.8007 H         1 <0>         0.1245
     34 H13         3.7300   -8.5740   -2.7964 H         1 <0>         0.1250
     35 H14         1.6061   -0.2586   -0.2124 H         1 <0>         0.1703
@<TRIPOS>BOND
     1    1    2 1
     2    1   22 1
     3    1   23 1
     4    1   24 1
     5    2    3 1
     6    2   21 2
     7    3    4 1
     8    3    6 1
     9    3   35 1
    10    4    5 3
    11    6    7 2
    12    6    8 am
    13    8    9 1
    14    8   25 1
    15    9   14 ar
    16    9   10 ar
    17   10   11 ar
    18   10   26 1
    19   11   12 ar
    20   11   27 1
    21   12   13 ar
    22   12   15 1
    23   13   14 ar
    24   13   28 1
    25   14   29 1
    26   15   20 ar
    27   15   16 ar
    28   16   17 ar
    29   16   30 1
    30   17   18 ar
    31   17   31 1
    32   18   19 ar
    33   18   32 1
    34   19   20 ar
    35   19   33 1
    36   20   34 1
@<TRIPOS>MOLECULE
CHEMBL50441
   44    47     0     0     0
SMALL
USER_CHARGES

@<TRIPOS>ATOM
      1 C1          0.2463    1.4559   -0.0508 C.3       1 <0>        -0.1011
      2 C2         -0.0461   -0.0212    0.0091 C.ar      1 <0>        -0.1759
      3 C3         -0.4247   -0.7075   -1.1373 C.ar      1 <0>        -0.0082
      4 C4         -0.6923   -2.1408   -1.0040 C.ar      1 <0>        -0.0999
      5 C5         -1.0786   -2.9172   -2.1008 C.ar      1 <0>        -0.0891
      6 C6         -1.3180   -4.2512   -1.9319 C.ar      1 <0>         0.0632
      7 C7         -1.1815   -4.8472   -0.6778 C.ar      1 <0>        -0.1247
      8 C8         -0.8071   -4.1183    0.4086 C.ar      1 <0>        -0.0869
      9 C9         -0.5522   -2.7416    0.2717 C.ar      1 <0>         0.1597
     10 N1         -0.1828   -2.0020    1.3206 N.ar      1 <0>        -0.5452
     11 C10         0.0672   -0.7158    1.2212 C.ar      1 <0>         0.4272
     12 N2          0.4518   -0.0187    2.3589 N.pl3     1 <0>        -0.6614
     13 C11         0.6802   -0.7047    3.5550 C.ar      1 <0>         0.1800
     14 C12         1.2051   -1.9917    3.5292 C.ar      1 <0>        -0.1103
     15 C13         1.4327   -2.6726    4.7097 C.ar      1 <0>        -0.0986
     16 C14         1.1401   -2.0788    5.9216 C.ar      1 <0>        -0.1362
     17 C15         0.6132   -0.7891    5.9571 C.ar      1 <0>        -0.0330
     18 C16         0.3887   -0.0996    4.7685 C.ar      1 <0>        -0.1488
     19 C17         0.2974   -0.1501    7.2588 C.ar      1 <0>        -0.0351
     20 C18        -0.2347    1.1371    7.2949 C.ar      1 <0>        -0.1127
     21 C19        -0.5265    1.7266    8.5083 C.ar      1 <0>        -0.1178
     22 C20        -0.2912    1.0421    9.6870 C.ar      1 <0>        -0.1250
     23 C21         0.2369   -0.2360    9.6569 C.ar      1 <0>        -0.1190
     24 C22         0.5266   -0.8374    8.4489 C.ar      1 <0>        -0.1126
     25 F1         -1.6918   -5.0020   -2.9910 F         1 <0>        -0.1447
     26 C23        -0.5525   -0.0199   -2.4372 C.2       1 <0>         0.5320
     27 O1          0.4134    0.0633   -3.1825 O.co2     1 <0>        -0.6685
     28 O2         -1.6244    0.4665   -2.7689 O.co2     1 <0>        -0.6694
     29 H1          1.3158    1.6091   -0.1953 H         1 <0>         0.0701
     30 H2         -0.3001    1.9010   -0.8824 H         1 <0>         0.0812
     31 H3         -0.0653    1.9261    0.8819 H         1 <0>         0.0558
     32 H4         -1.1873   -2.4648   -3.0754 H         1 <0>         0.1413
     33 H5         -1.3764   -5.9037   -0.5674 H         1 <0>         0.1354
     34 H6         -0.7063   -4.5949    1.3725 H         1 <0>         0.1387
     35 H7          0.5619    0.9444    2.3236 H         1 <0>         0.4170
     36 H8          1.4353   -2.4606    2.5839 H         1 <0>         0.1393
     37 H9          1.8402   -3.6724    4.6845 H         1 <0>         0.1236
     38 H10         1.3193   -2.6142    6.8422 H         1 <0>         0.1206
     39 H11        -0.0153    0.9017    4.7911 H         1 <0>         0.1236
     40 H12        -0.4182    1.6727    6.3752 H         1 <0>         0.1249
     41 H13        -0.9390    2.7243    8.5375 H         1 <0>         0.1224
     42 H14        -0.5203    1.5074   10.6343 H         1 <0>         0.1201
     43 H15         0.4187   -0.7660   10.5802 H         1 <0>         0.1220
     44 H16         0.9344   -1.8372    8.4263 H         1 <0>         0.1257
@<TRIPOS>BOND
     1    1    2 1
     2    1   29 1
     3    1   30 1
     4    1   31 1
     5    2   11 ar
     6    2    3 ar
     7    3    4 ar
     8    3   26 1
     9    4    9 ar
    10    4    5 ar
    11    5    6 ar
    12    5   32 1
    13    6    7 ar
    14    6   25 1
    15    7    8 ar
    16    7   33 1
    17    8    9 ar
    18    8   34 1
    19    9   10 ar
    20   10   11 ar
    21   11   12 1
    22   12   13 1
    23   12   35 1
    24   13   18 ar
    25   13   14 ar
    26   14   15 ar
    27   14   36 1
    28   15   16 ar
    29   15   37 1
    30   16   17 ar
    31   16   38 1
    32   17   18 ar
    33   17   19 1
    34   18   39 1
    35   19   24 ar
    36   19   20 ar
    37   20   21 ar
    38   20   40 1
    39   21   22 ar
    40   21   41 1
    41   22   23 ar
    42   22   42 1
    43   23   24 ar
    44   23   43 1
    45   24   44 1
    46   26   27 2
    47   26   28 1
@<TRIPOS>MOLECULE
CHEMBL141248
   32    33     0     0     0
SMALL
USER_CHARGES

@<TRIPOS>ATOM
      1 C1          1.0635   -0.4505   -0.7856 C.ar      1 <0>        -0.1000
      2 C2          2.2487    0.2567   -0.8067 C.ar      1 <0>        -0.0602
      3 C3          2.3791    1.4164   -0.0523 C.ar      1 <0>        -0.1450
      4 C4          1.3162    1.8638    0.7229 C.ar      1 <0>        -0.0978
      5 C5          0.1313    1.1561    0.7435 C.ar      1 <0>        -0.1457
      6 C6          0.0013   -0.0031   -0.0106 C.ar      1 <0>         0.1984
      7 N1         -1.2012   -0.7206    0.0101 N.pl3     1 <0>        -0.6751
      8 C7         -1.1863   -2.0762   -0.0999 C.2       1 <0>         0.5449
      9 O1         -0.0138   -2.7373   -0.1153 O.3       1 <0>        -0.6142
     10 C8         -2.3889   -2.7831   -0.1971 C.2       1 <0>        -0.4399
     11 C9         -2.3734   -4.1872   -0.3112 C.2       1 <0>         0.4457
     12 C10        -3.6695   -4.9490   -0.4159 C.3       1 <0>        -0.1993
     13 C11        -3.7093   -6.1481   -1.3654 C.3       1 <0>        -0.1602
     14 C12        -3.7007   -6.3708    0.1483 C.3       1 <0>        -0.1612
     15 O2         -1.3151   -4.7839   -0.3251 O.2       1 <0>        -0.5001
     16 C13        -3.6362   -2.0797   -0.1807 C.1       1 <0>         0.3007
     17 N2         -4.6256   -1.5218   -0.1677 N.1       1 <0>        -0.5405
     18 S1          3.8920    2.3192   -0.0785 S.3       1 <0>        -0.0381
     19 C14         3.5867    3.7196    1.0335 C.3       1 <0>         0.4515
     20 F1          3.2801    3.2416    2.3120 F         1 <0>        -0.1645
     21 F2          4.7308    4.5222    1.0976 F         1 <0>        -0.1512
     22 F3          2.5137    4.4749    0.5483 F         1 <0>        -0.1655
     23 H1          0.9606   -1.3494   -1.3753 H         1 <0>         0.1549
     24 H2          3.0747   -0.0914   -1.4090 H         1 <0>         0.1312
     25 H3          1.4173    2.7649    1.3096 H         1 <0>         0.1198
     26 H4         -0.6949    1.5037    1.3460 H         1 <0>         0.1291
     27 H5         -2.0448   -0.2508    0.1030 H         1 <0>         0.4034
     28 H6         -4.5755   -4.3504   -0.3223 H         1 <0>         0.1027
     29 H7         -4.6418   -6.3384   -1.8968 H         1 <0>         0.0892
     30 H8         -2.7982   -6.3859   -1.9143 H         1 <0>         0.0981
     31 H9         -2.7839   -6.7552    0.5952 H         1 <0>         0.0996
     32 H10        -4.6275   -6.7077    0.6127 H         1 <0>         0.0890
@<TRIPOS>BOND
     1    1    6 ar
     2    1    2 ar
     3    1   23 1
     4    2    3 ar
     5    2   24 1
     6    3    4 ar
     7    3   18 1
     8    4    5 ar
     9    4   25 1
    10    5    6 ar
    11    5   26 1
    12    6    7 1
    13    7    8 1
    14    7   27 1
    15    8    9 1
    16    8   10 2
    17   10   16 1
    18   10   11 1
    19   11   15 2
    20   11   12 1
    21   12   14 1
    22   12   13 1
    23   12   28 1
    24   13   14 1
    25   13   29 1
    26   13   30 1
    27   14   31 1
    28   14   32 1
    29   16   17 3
    30   18   19 1
    31   19   20 1
    32   19   21 1
    33   19   22 1
@<TRIPOS>MOLECULE
CHEMBL141248__1
   33    34     0     0     0
SMALL
NO_CHARGES

@<TRIPOS>ATOM
      1 C1          1.0706   -0.4555   -0.7664 C.ar      1 <0>        -0.0994
      2 C2          2.2566    0.2509   -0.7798 C.ar      1 <0>        -0.0592
      3 C3          2.3807    1.4141   -0.0301 C.ar      1 <0>        -0.1191
      4 C4          1.3109    1.8659    0.7329 C.ar      1 <0>        -0.0991
      5 C5          0.1253    1.1589    0.7458 C.ar      1 <0>        -0.1177
      6 C6          0.0018   -0.0036   -0.0037 C.ar      1 <0>         0.1565
      7 N1         -1.2021   -0.7210    0.0097 N.am      1 <0>        -0.6683
      8 C7         -1.1873   -2.0643   -0.0994 C.2       1 <0>         0.5272
      9 O1         -0.1308   -2.6601   -0.1129 O.2       1 <0>        -0.4664
     10 C8         -2.4833   -2.8261   -0.2046 C.3       1 <0>        -0.0505
     11 C9         -2.1919   -4.3005   -0.3152 C.2       1 <0>         0.3954
     12 C10        -3.1328   -5.1997   -1.0749 C.3       1 <0>        -0.2234
     13 C11        -2.5152   -6.3136   -1.9227 C.3       1 <0>        -0.1422
     14 C12        -3.2399   -6.6564   -0.6195 C.3       1 <0>        -0.1477
     15 O2         -1.2043   -4.7614    0.2049 O.2       1 <0>        -0.3891
     16 C13        -3.2985   -2.5757    0.9952 C.1       1 <0>         0.2004
     17 N2         -3.9275   -2.3825    1.9212 N.1       1 <0>        -0.3686
     18 S1          3.8944    2.3158   -0.0465 S.3       1 <0>        -0.0192
     19 C14         3.5796    3.7219    1.0556 C.3       1 <0>         0.4510
     20 F1          3.2607    3.2504    2.3336 F         1 <0>        -0.1630
     21 F2          4.7236    4.5241    1.1265 F         1 <0>        -0.1438
     22 F3          2.5117    4.4755    0.5567 F         1 <0>        -0.1633
     23 H1          0.9726   -1.3572   -1.3525 H         1 <0>         0.1481
     24 H2          3.0879   -0.1008   -1.3728 H         1 <0>         0.1409
     25 H3          1.4070    2.7698    1.3160 H         1 <0>         0.1299
     26 H4         -0.7062    1.5100    1.3388 H         1 <0>         0.1376
     27 H5         -2.0460   -0.2508    0.0975 H         1 <0>         0.4159
     28 H6         -4.0373   -4.7224   -1.4520 H         1 <0>         0.1322
     29 H7         -3.0134   -6.5693   -2.8579 H         1 <0>         0.1106
     30 H8         -1.4284   -6.3960   -1.9310 H         1 <0>         0.1069
     31 H9         -2.6297   -6.9644    0.2296 H         1 <0>         0.1059
     32 H10        -4.2148   -7.1376   -0.6973 H         1 <0>         0.1097
     33 H11        -3.0280   -2.4960   -1.0892 H         1 <0>         0.1720
@<TRIPOS>BOND
     1    1    6 ar
     2    1    2 ar
     3    1   23 1
     4    2    3 ar
     5    2   24 1
     6    3    4 ar
     7    3   18 1
     8    4    5 ar
     9    4   25 1
    10    5    6 ar
    11    5   26 1
    12    6    7 1
    13    7    8 am
    14    7   27 1
    15    8    9 2
    16    8   10 1
    17   10   16 1
    18   10   33 1
    19   10   11 1
    20   11   15 2
    21   11   12 1
    22   12   14 1
    23   12   13 1
    24   12   28 1
    25   13   14 1
    26   13   29 1
    27   13   30 1
    28   14   31 1
    29   14   32 1
    30   16   17 3
    31   18   19 1
    32   19   20 1
    33   19   21 1
    34   19   22 1
@<TRIPOS>MOLECULE
CHEMBL484780
   34    35     0     0     0
SMALL
USER_CHARGES

@<TRIPOS>ATOM
      1 C1         -0.7629    1.4496    0.0573 C.3       1 <0>        -0.1906
      2 C2         -0.9470   -0.0412    0.1785 C.2       1 <0>         0.4136
      3 C3         -0.3465   -0.7409    1.2439 C.2       1 <0>        -0.4481
      4 C4          0.4387   -0.0354    2.2116 C.1       1 <0>         0.3001
      5 N1          1.0616    0.5243    2.9792 N.1       1 <0>        -0.5411
      6 C5         -0.5173   -2.1238    1.3563 C.2       1 <0>         0.5448
      7 O1         -1.2553   -2.7870    0.4468 O.3       1 <0>        -0.6138
      8 N2          0.0627   -2.7996    2.3854 N.pl3     1 <0>        -0.6745
      9 C6         -0.0080   -4.1944    2.4333 C.ar      1 <0>         0.2050
     10 C7          0.0026   -4.9307    1.2540 C.ar      1 <0>        -0.1132
     11 C8         -0.0675   -6.3066    1.2981 C.ar      1 <0>        -0.0682
     12 C9         -0.1488   -6.9607    2.5266 C.ar      1 <0>        -0.0902
     13 C10        -0.1589   -6.2204    3.7090 C.ar      1 <0>         0.0113
     14 C11        -0.0832   -4.8433    3.6597 C.ar      1 <0>        -0.1607
     15 Cl1        -0.2605   -7.0309    5.2408 Cl        1 <0>        -0.0721
     16 C12        -0.2248   -8.4411    2.5764 C.ar      1 <0>        -0.0220
     17 C13         0.8510   -9.2120    2.1396 C.ar      1 <0>        -0.0932
     18 C14         0.7751  -10.5890    2.1886 C.ar      1 <0>        -0.1182
     19 C15        -0.3664  -11.2053    2.6697 C.ar      1 <0>        -0.1112
     20 C16        -1.4375  -10.4465    3.1047 C.ar      1 <0>        -0.1140
     21 C17        -1.3709   -9.0671    3.0659 C.ar      1 <0>        -0.0173
     22 Cl2        -2.7133   -8.1154    3.6188 Cl        1 <0>        -0.0569
     23 O2         -1.6132   -0.6398   -0.6426 O.2       1 <0>        -0.5071
     24 H1          0.1217    1.6588   -0.5442 H         1 <0>         0.0719
     25 H2         -1.6394    1.8862   -0.4216 H         1 <0>         0.0662
     26 H3         -0.6380    1.8822    1.0499 H         1 <0>         0.0612
     27 H4          0.5252   -2.3131    3.0856 H         1 <0>         0.4029
     28 H5          0.0656   -4.4241    0.3023 H         1 <0>         0.1520
     29 H6         -0.0599   -6.8777    0.3814 H         1 <0>         0.1308
     30 H7         -0.0866   -4.2695    4.5746 H         1 <0>         0.1320
     31 H8          1.7425   -8.7325    1.7631 H         1 <0>         0.1327
     32 H9          1.6084  -11.1869    1.8503 H         1 <0>         0.1278
     33 H10        -0.4212  -12.2833    2.7054 H         1 <0>         0.1285
     34 H11        -2.3261  -10.9330    3.4790 H         1 <0>         0.1315
@<TRIPOS>BOND
     1    1    2 1
     2    1   24 1
     3    1   25 1
     4    1   26 1
     5    2    3 1
     6    2   23 2
     7    3    4 1
     8    3    6 2
     9    4    5 3
    10    6    7 1
    11    6    8 1
    12    8    9 1
    13    8   27 1
    14    9   14 ar
    15    9   10 ar
    16   10   11 ar
    17   10   28 1
    18   11   12 ar
    19   11   29 1
    20   12   13 ar
    21   12   16 1
    22   13   14 ar
    23   13   15 1
    24   14   30 1
    25   16   21 ar
    26   16   17 ar
    27   17   18 ar
    28   17   31 1
    29   18   19 ar
    30   18   32 1
    31   19   20 ar
    32   19   33 1
    33   20   21 ar
    34   20   34 1
    35   21   22 1
@<TRIPOS>MOLECULE
CHEMBL484780__1
   35    36     0     0     0
SMALL
NO_CHARGES

@<TRIPOS>ATOM
      1 C1         -1.3339    0.7989    0.4056 C.3       1 <0>        -0.1976
      2 C2         -0.9976   -0.6566    0.6043 C.2       1 <0>         0.3641
      3 C3          0.2280   -1.0462    1.3900 C.3       1 <0>        -0.0586
      4 C4         -0.1253   -1.1877    2.8120 C.1       1 <0>         0.2004
      5 N1         -0.3979   -1.2968    3.9094 N.1       1 <0>        -0.3700
      6 C5          0.7609   -2.3572    0.8720 C.2       1 <0>         0.5267
      7 O1          0.2007   -2.9198   -0.0449 O.2       1 <0>        -0.4674
      8 N2          1.8601   -2.9045    1.4277 N.am      1 <0>        -0.6670
      9 C6          2.2987   -4.1660    1.0133 C.ar      1 <0>         0.1596
     10 C7          2.1656   -4.5442   -0.3177 C.ar      1 <0>        -0.1130
     11 C8          2.5970   -5.7871   -0.7292 C.ar      1 <0>        -0.0683
     12 C9          3.1679   -6.6656    0.1904 C.ar      1 <0>        -0.0536
     13 C10         3.3012   -6.2842    1.5256 C.ar      1 <0>         0.0044
     14 C11         2.8720   -5.0369    1.9314 C.ar      1 <0>        -0.1338
     15 Cl1         4.0110   -7.3753    2.6743 Cl        1 <0>        -0.0500
     16 C12         3.6324   -8.0036   -0.2500 C.ar      1 <0>        -0.0438
     17 C13         4.6938   -8.1156   -1.1463 C.ar      1 <0>        -0.0887
     18 C14         5.1218   -9.3630   -1.5527 C.ar      1 <0>        -0.1154
     19 C15         4.4996  -10.5017   -1.0728 C.ar      1 <0>        -0.1010
     20 C16         3.4456  -10.3977   -0.1836 C.ar      1 <0>        -0.1114
     21 C17         3.0126   -9.1546    0.2356 C.ar      1 <0>        -0.0147
     22 Cl2         1.6945   -9.0254    1.3579 Cl        1 <0>        -0.0579
     23 O2         -1.7101   -1.5107    0.1341 O.2       1 <0>        -0.3910
     24 H1         -0.5163    1.2922   -0.1200 H         1 <0>         0.1025
     25 H2         -2.2476    0.8836   -0.1828 H         1 <0>         0.0952
     26 H3         -1.4812    1.2736    1.3757 H         1 <0>         0.0979
     27 H4          2.3469   -2.4234    2.1150 H         1 <0>         0.4158
     28 H5          1.7233   -3.8636   -1.0301 H         1 <0>         0.1496
     29 H6          2.4924   -6.0802   -1.7634 H         1 <0>         0.1401
     30 H7          2.9785   -4.7391    2.9641 H         1 <0>         0.1399
     31 H8          5.1802   -7.2278   -1.5224 H         1 <0>         0.1339
     32 H9          5.9442   -9.4505   -2.2473 H         1 <0>         0.1324
     33 H10         4.8381  -11.4756   -1.3942 H         1 <0>         0.1336
     34 H11         2.9632  -11.2900    0.1872 H         1 <0>         0.1357
     35 H12         0.9904   -0.2751    1.2800 H         1 <0>         0.1713
@<TRIPOS>BOND
     1    1    2 1
     2    1   24 1
     3    1   25 1
     4    1   26 1
     5    2    3 1
     6    2   23 2
     7    3    4 1
     8    3    6 1
     9    3   35 1
    10    4    5 3
    11    6    7 2
    12    6    8 am
    13    8    9 1
    14    8   27 1
    15    9   14 ar
    16    9   10 ar
    17   10   11 ar
    18   10   28 1
    19   11   12 ar
    20   11   29 1
    21   12   13 ar
    22   12   16 1
    23   13   14 ar
    24   13   15 1
    25   14   30 1
    26   16   21 ar
    27   16   17 ar
    28   17   18 ar
    29   17   31 1
    30   18   19 ar
    31   18   32 1
    32   19   20 ar
    33   19   33 1
    34   20   21 ar
    35   20   34 1
    36   21   22 1
@<TRIPOS>MOLECULE
CHEMBL141237
   39    41     0     0     0
SMALL
USER_CHARGES

@<TRIPOS>ATOM
      1 C1         -0.0951    1.3439    0.3157 C.ar      1 <0>        -0.0792
      2 C2          1.0945    1.9943    0.0547 C.ar      1 <0>        -0.1207
      3 C3          2.2986    1.3167    0.1823 C.ar      1 <0>         0.0799
      4 C4          2.3081   -0.0148    0.5727 C.ar      1 <0>        -0.1744
      5 C5          1.1193   -0.6663    0.8345 C.ar      1 <0>        -0.1285
      6 C6         -0.0863    0.0113    0.7065 C.ar      1 <0>         0.1554
      7 N1         -1.2921   -0.6487    0.9718 N.pl3     1 <0>        -0.6754
      8 C7         -2.4086   -0.3378    0.2596 C.2       1 <0>         0.5467
      9 O1         -2.3353    0.5411   -0.7572 O.3       1 <0>        -0.6178
     10 C8         -3.6325   -0.9313    0.5839 C.2       1 <0>        -0.4427
     11 C9         -4.7889   -0.6093   -0.1538 C.2       1 <0>         0.4453
     12 C10        -6.1079   -1.2489    0.1957 C.3       1 <0>        -0.1988
     13 C11        -7.3608   -0.3747    0.1129 C.3       1 <0>        -0.1605
     14 C12        -7.1136   -1.4588   -0.9380 C.3       1 <0>        -0.1615
     15 O2         -4.7227    0.1840   -1.0717 O.2       1 <0>        -0.5015
     16 C13        -3.7105   -1.8663    1.6657 C.1       1 <0>         0.3021
     17 N2         -3.7724   -2.6080    2.5239 N.1       1 <0>        -0.5439
     18 O3          3.4695    1.9574   -0.0758 O.3       1 <0>        -0.2622
     19 C14         4.6247    1.2544    0.0592 C.ar      1 <0>         0.1036
     20 C15         5.0069    0.3511   -0.9221 C.ar      1 <0>        -0.1220
     21 C16         6.1817   -0.3621   -0.7832 C.ar      1 <0>        -0.0957
     22 C17         6.9770   -0.1765    0.3339 C.ar      1 <0>        -0.0411
     23 C18         6.5974    0.7236    1.3139 C.ar      1 <0>        -0.0963
     24 C19         5.4264    1.4433    1.1758 C.ar      1 <0>        -0.1134
     25 Cl1         8.4526   -1.0745    0.5063 Cl        1 <0>        -0.0689
     26 H1         -1.0319    1.8727    0.2204 H         1 <0>         0.1530
     27 H2          1.0878    3.0307   -0.2492 H         1 <0>         0.1309
     28 H3          3.2456   -0.5418    0.6714 H         1 <0>         0.1231
     29 H4          1.1268   -1.7027    1.1380 H         1 <0>         0.1233
     30 H5         -1.3314   -1.3276    1.6635 H         1 <0>         0.4007
     31 H6         -6.0710   -2.0031    0.9818 H         1 <0>         0.1023
     32 H7         -8.1485   -0.5536    0.8448 H         1 <0>         0.0889
     33 H8         -7.2311    0.6630   -0.1943 H         1 <0>         0.0980
     34 H9         -6.8212   -1.1343   -1.9367 H         1 <0>         0.0994
     35 H10        -7.7387   -2.3508   -0.8976 H         1 <0>         0.0886
     36 H11         4.3862    0.2053   -1.7938 H         1 <0>         0.1419
     37 H12         6.4796   -1.0654   -1.5468 H         1 <0>         0.1396
     38 H13         7.2191    0.8666    2.1853 H         1 <0>         0.1400
     39 H14         5.1327    2.1490    1.9388 H         1 <0>         0.1419
@<TRIPOS>BOND
     1    1    6 ar
     2    1    2 ar
     3    1   26 1
     4    2    3 ar
     5    2   27 1
     6    3    4 ar
     7    3   18 1
     8    4    5 ar
     9    4   28 1
    10    5    6 ar
    11    5   29 1
    12    6    7 1
    13    7    8 1
    14    7   30 1
    15    8    9 1
    16    8   10 2
    17   10   16 1
    18   10   11 1
    19   11   15 2
    20   11   12 1
    21   12   14 1
    22   12   13 1
    23   12   31 1
    24   13   14 1
    25   13   32 1
    26   13   33 1
    27   14   34 1
    28   14   35 1
    29   16   17 3
    30   18   19 1
    31   19   24 ar
    32   19   20 ar
    33   20   21 ar
    34   20   36 1
    35   21   22 ar
    36   21   37 1
    37   22   23 ar
    38   22   25 1
    39   23   24 ar
    40   23   38 1
    41   24   39 1
@<TRIPOS>MOLECULE
CHEMBL141237__1
   40    42     0     0     0
SMALL
NO_CHARGES

@<TRIPOS>ATOM
      1 C1         -0.1206    1.3683    0.3114 C.ar      1 <0>        -0.0784
      2 C2          1.0722    2.0164    0.0589 C.ar      1 <0>        -0.1215
      3 C3          2.2735    1.3341    0.1873 C.ar      1 <0>         0.1115
      4 C4          2.2769    0.0004    0.5699 C.ar      1 <0>        -0.1746
      5 C5          1.0847   -0.6487    0.8227 C.ar      1 <0>        -0.1003
      6 C6         -0.1178    0.0337    0.6944 C.ar      1 <0>         0.1117
      7 N1         -1.3277   -0.6243    0.9512 N.am      1 <0>        -0.6652
      8 C7         -2.4314   -0.3044    0.2470 C.2       1 <0>         0.5255
      9 O1         -2.3599    0.4947   -0.6628 O.2       1 <0>        -0.4707
     10 C8         -3.7543   -0.9395    0.5898 C.3       1 <0>        -0.0512
     11 C9         -4.8187   -0.4161   -0.3398 C.2       1 <0>         0.3955
     12 C10        -6.2463   -0.3124    0.1317 C.3       1 <0>        -0.2232
     13 C11        -7.0526    0.9070   -0.3198 C.3       1 <0>        -0.1424
     14 C12        -7.3497   -0.4702   -0.9165 C.3       1 <0>        -0.1479
     15 O2         -4.5277   -0.0798   -1.4625 O.2       1 <0>        -0.3892
     16 C13        -3.6499   -2.4004    0.4432 C.1       1 <0>         0.2021
     17 N2         -3.5693   -3.5279    0.3300 N.1       1 <0>        -0.3712
     18 O3          3.4475    1.9724   -0.0624 O.3       1 <0>        -0.2548
     19 C14         4.6001    1.2660    0.0773 C.ar      1 <0>         0.0890
     20 C15         4.9809    0.3575   -0.8999 C.ar      1 <0>        -0.1207
     21 C16         6.1530   -0.3592   -0.7562 C.ar      1 <0>        -0.0953
     22 C17         6.9469   -0.1720    0.3615 C.ar      1 <0>        -0.0354
     23 C18         6.5687    0.7332    1.3374 C.ar      1 <0>        -0.0949
     24 C19         5.4005    1.4564    1.1946 C.ar      1 <0>        -0.1084
     25 Cl1         8.4192   -1.0743    0.5399 Cl        1 <0>        -0.0595
     26 H1         -1.0554    1.9007    0.2154 H         1 <0>         0.1453
     27 H2          1.0701    3.0545   -0.2390 H         1 <0>         0.1401
     28 H3          3.2123   -0.5303    0.6697 H         1 <0>         0.1338
     29 H4          1.0875   -1.6870    1.1199 H         1 <0>         0.1314
     30 H5         -1.3710   -1.3100    1.6359 H         1 <0>         0.4130
     31 H6         -6.4412   -0.7034    1.1303 H         1 <0>         0.1319
     32 H7         -7.7780    1.3187    0.3819 H         1 <0>         0.1103
     33 H8         -6.5504    1.6343   -0.9579 H         1 <0>         0.1068
     34 H9         -7.0430   -0.6490   -1.9470 H         1 <0>         0.1057
     35 H10        -8.2706   -0.9646   -0.6073 H         1 <0>         0.1094
     36 H11        -4.0186   -0.6956    1.6188 H         1 <0>         0.1706
     37 H12         4.3611    0.2106   -1.7721 H         1 <0>         0.1416
     38 H13         6.4497   -1.0664   -1.5166 H         1 <0>         0.1425
     39 H14         7.1894    0.8773    2.2094 H         1 <0>         0.1437
     40 H15         5.1079    2.1660    1.9543 H         1 <0>         0.1435
@<TRIPOS>BOND
     1    1    6 ar
     2    1    2 ar
     3    1   26 1
     4    2    3 ar
     5    2   27 1
     6    3    4 ar
     7    3   18 1
     8    4    5 ar
     9    4   28 1
    10    5    6 ar
    11    5   29 1
    12    6    7 1
    13    7    8 am
    14    7   30 1
    15    8    9 2
    16    8   10 1
    17   10   16 1
    18   10   36 1
    19   10   11 1
    20   11   15 2
    21   11   12 1
    22   12   14 1
    23   12   13 1
    24   12   31 1
    25   13   14 1
    26   13   32 1
    27   13   33 1
    28   14   34 1
    29   14   35 1
    30   16   17 3
    31   18   19 1
    32   19   24 ar
    33   19   20 ar
    34   20   21 ar
    35   20   37 1
    36   21   22 ar
    37   21   38 1
    38   22   23 ar
    39   22   25 1
    40   23   24 ar
    41   23   39 1
    42   24   40 1
@<TRIPOS>MOLECULE
CHEMBL322929
   44    48     0     0     0
SMALL
USER_CHARGES

@<TRIPOS>ATOM
      1 C1         -0.0157    1.3822    0.0934 C.ar      1 <0>        -0.1256
      2 C2          0.4432    0.7237    1.2193 C.ar      1 <0>        -0.1047
      3 C3          1.6477    0.0483    1.1831 C.ar      1 <0>        -0.1393
      4 C4          2.3969    0.0307    0.0153 C.ar      1 <0>         0.0929
      5 C5          1.9339    0.6919   -1.1133 C.ar      1 <0>        -0.1232
      6 C6          0.7290    1.3662   -1.0715 C.ar      1 <0>        -0.1046
      7 O1          3.5823   -0.6325   -0.0228 O.3       1 <0>        -0.2534
      8 C7          3.5583   -1.9879    0.0721 C.ar      1 <0>         0.1140
      9 C8          2.3447   -2.6630    0.0733 C.ar      1 <0>        -0.1823
     10 C9          2.3132   -4.0417    0.1661 C.ar      1 <0>        -0.0965
     11 C10         3.4912   -4.7562    0.2681 C.ar      1 <0>        -0.1028
     12 C11         4.7093   -4.0852    0.2839 C.ar      1 <0>        -0.0056
     13 C12         4.7449   -2.6976    0.1619 C.ar      1 <0>        -0.0751
     14 C13         6.0638   -1.9751    0.1045 C.3       1 <0>        -0.0726
     15 C14         7.0880   -2.6511    1.0112 C.3       1 <0>        -0.0723
     16 C15         7.1530   -4.1271    0.7272 C.ar      1 <0>        -0.1247
     17 C16         5.9863   -4.8349    0.4038 C.ar      1 <0>         0.2092
     18 N1          6.0028   -6.1345    0.1854 N.ar      1 <0>        -0.4833
     19 C17         7.1197   -6.8587    0.2478 C.ar      1 <0>         0.1211
     20 C18         7.0991   -8.2464    0.0087 C.ar      1 <0>        -0.0697
     21 C19         8.2564   -8.9586    0.0666 C.ar      1 <0>        -0.1355
     22 C20         9.4706   -8.3374    0.3631 C.ar      1 <0>         0.0815
     23 C21         9.5271   -6.9944    0.6064 C.ar      1 <0>        -0.1023
     24 C22         8.3552   -6.2342    0.5558 C.ar      1 <0>        -0.0672
     25 C23         8.3665   -4.7957    0.7992 C.ar      1 <0>        -0.0365
     26 C24         9.6169   -4.0846    1.1293 C.2       1 <0>         0.5321
     27 O2         10.0164   -4.0544    2.2847 O.co2     1 <0>        -0.6691
     28 O3         10.2535   -3.5255    0.2474 O.co2     1 <0>        -0.6689
     29 F1         10.6029   -9.0728    0.4106 F         1 <0>        -0.1415
     30 H1         -0.9597    1.9061    0.1226 H         1 <0>         0.1260
     31 H2         -0.1404    0.7377    2.1280 H         1 <0>         0.1283
     32 H3          2.0060   -0.4652    2.0630 H         1 <0>         0.1310
     33 H4          2.5153    0.6800   -2.0233 H         1 <0>         0.1328
     34 H5          0.3683    1.8814   -1.9495 H         1 <0>         0.1298
     35 H6          1.4210   -2.1079    0.0018 H         1 <0>         0.1280
     36 H7          1.3663   -4.5611    0.1591 H         1 <0>         0.1281
     37 H8          3.4662   -5.8338    0.3359 H         1 <0>         0.1374
     38 H9          6.4325   -1.9816   -0.9212 H         1 <0>         0.0817
     39 H10         5.9227   -0.9439    0.4282 H         1 <0>         0.0868
     40 H11         8.0688   -2.2082    0.8383 H         1 <0>         0.0941
     41 H12         6.8033   -2.4975    2.0521 H         1 <0>         0.0778
     42 H13         6.1677   -8.7432   -0.2195 H         1 <0>         0.1416
     43 H14         8.2354  -10.0223   -0.1196 H         1 <0>         0.1380
     44 H15        10.4712   -6.5230    0.8366 H         1 <0>         0.1444
@<TRIPOS>BOND
     1    1    6 ar
     2    1    2 ar
     3    1   30 1
     4    2    3 ar
     5    2   31 1
     6    3    4 ar
     7    3   32 1
     8    4    5 ar
     9    4    7 1
    10    5    6 ar
    11    5   33 1
    12    6   34 1
    13    7    8 1
    14    8   13 ar
    15    8    9 ar
    16    9   10 ar
    17    9   35 1
    18   10   11 ar
    19   10   36 1
    20   11   12 ar
    21   11   37 1
    22   12   17 1
    23   12   13 ar
    24   13   14 1
    25   14   15 1
    26   14   38 1
    27   14   39 1
    28   15   16 1
    29   15   40 1
    30   15   41 1
    31   16   25 ar
    32   16   17 ar
    33   17   18 ar
    34   18   19 ar
    35   19   24 ar
    36   19   20 ar
    37   20   21 ar
    38   20   42 1
    39   21   22 ar
    40   21   43 1
    41   22   23 ar
    42   22   29 1
    43   23   24 ar
    44   23   44 1
    45   24   25 ar
    46   25   26 1
    47   26   27 2
    48   26   28 1
@<TRIPOS>MOLECULE
CHEMBL107642
   41    45     0     0     0
SMALL
USER_CHARGES

@<TRIPOS>ATOM
      1 C1         -0.0642    1.2543    0.5128 C.ar      1 <0>        -0.1208
      2 C2          1.1082    1.9846    0.4372 C.ar      1 <0>        -0.1202
      3 C3          2.3235    1.3365    0.3505 C.ar      1 <0>        -0.1078
      4 C4          2.3683   -0.0565    0.3396 C.ar      1 <0>        -0.0419
      5 C5          1.1838   -0.7872    0.4165 C.ar      1 <0>        -0.1076
      6 C6         -0.0259   -0.1285    0.5024 C.ar      1 <0>        -0.1188
      7 C7          3.6713   -0.7587    0.2460 C.ar      1 <0>        -0.0088
      8 C8          4.8540   -0.0214    0.1747 C.ar      1 <0>        -0.1463
      9 C9          6.0676   -0.6693    0.0866 C.ar      1 <0>        -0.0414
     10 C10         6.1082   -2.0587    0.0700 C.ar      1 <0>        -0.1109
     11 C11         4.9235   -2.8060    0.1444 C.ar      1 <0>         0.1532
     12 C12         3.7092   -2.1516    0.2356 C.ar      1 <0>        -0.1414
     13 O1          4.9828   -4.1609    0.1387 O.3       1 <0>        -0.3093
     14 C13         5.9939   -4.7895   -0.6491 C.3       1 <0>         0.1223
     15 C14         7.3323   -4.1560   -0.3797 C.ar      1 <0>        -0.1853
     16 C15         7.3947   -2.7917   -0.0291 C.ar      1 <0>         0.2240
     17 N1          8.5368   -2.1836    0.2047 N.ar      1 <0>        -0.4818
     18 C16         9.7097   -2.8155    0.1346 C.ar      1 <0>         0.1253
     19 C17        10.9151   -2.1345    0.3915 C.ar      1 <0>        -0.0711
     20 C18        12.0973   -2.8034    0.3180 C.ar      1 <0>        -0.1318
     21 C19        12.1384   -4.1592   -0.0105 C.ar      1 <0>         0.0828
     22 C20        10.9888   -4.8509   -0.2676 C.ar      1 <0>        -0.1006
     23 C21         9.7577   -4.1924   -0.2009 C.ar      1 <0>        -0.0707
     24 C22         8.4999   -4.8935   -0.4727 C.ar      1 <0>        -0.0185
     25 C23         8.4790   -6.3254   -0.8298 C.2       1 <0>         0.5273
     26 O2          8.5207   -6.6633   -2.0043 O.co2     1 <0>        -0.6647
     27 O3          8.4199   -7.1739    0.0488 O.co2     1 <0>        -0.6631
     28 F1         13.3287   -4.7950   -0.0746 F         1 <0>        -0.1401
     29 H1         -1.0128    1.7656    0.5848 H         1 <0>         0.1208
     30 H2          1.0723    3.0640    0.4457 H         1 <0>         0.1231
     31 H3          3.2382    1.9077    0.2908 H         1 <0>         0.1273
     32 H4          1.2125   -1.8668    0.4081 H         1 <0>         0.1285
     33 H5         -0.9443   -0.6936    0.5620 H         1 <0>         0.1238
     34 H6          4.8184    1.0579    0.1888 H         1 <0>         0.1302
     35 H7          6.9834   -0.0996    0.0304 H         1 <0>         0.1395
     36 H8          2.7918   -2.7186    0.2945 H         1 <0>         0.1380
     37 H9          6.0393   -5.8495   -0.3993 H         1 <0>         0.1290
     38 H10         5.7488   -4.6800   -1.7055 H         1 <0>         0.0793
     39 H11        10.9011   -1.0850    0.6457 H         1 <0>         0.1433
     40 H12        13.0190   -2.2767    0.5166 H         1 <0>         0.1397
     41 H13        11.0309   -5.8998   -0.5214 H         1 <0>         0.1456
@<TRIPOS>BOND
     1    1    6 ar
     2    1    2 ar
     3    1   29 1
     4    2    3 ar
     5    2   30 1
     6    3    4 ar
     7    3   31 1
     8    4    5 ar
     9    4    7 1
    10    5    6 ar
    11    5   32 1
    12    6   33 1
    13    7   12 ar
    14    7    8 ar
    15    8    9 ar
    16    8   34 1
    17    9   10 ar
    18    9   35 1
    19   10   16 1
    20   10   11 ar
    21   11   12 ar
    22   11   13 1
    23   12   36 1
    24   13   14 1
    25   14   15 1
    26   14   37 1
    27   14   38 1
    28   15   24 ar
    29   15   16 ar
    30   16   17 ar
    31   17   18 ar
    32   18   23 ar
    33   18   19 ar
    34   19   20 ar
    35   19   39 1
    36   20   21 ar
    37   20   40 1
    38   21   22 ar
    39   21   28 1
    40   22   23 ar
    41   22   41 1
    42   23   24 ar
    43   24   25 1
    44   25   26 2
    45   25   27 1
@<TRIPOS>MOLECULE
CHEMBL289071
   41    44     0     0     0
SMALL
USER_CHARGES

@<TRIPOS>ATOM
      1 C1         -0.0034    1.5029    0.0089 C.3       1 <0>        -0.1089
      2 C2          0.0091   -0.0040    0.0014 C.ar      1 <0>        -0.1420
      3 C3         -0.0984   -0.7010   -1.1950 C.ar      1 <0>        -0.0240
      4 C4         -0.0783   -2.1613   -1.1241 C.ar      1 <0>        -0.1407
      5 C5         -0.1801   -2.9542   -2.2757 C.ar      1 <0>        -0.0179
      6 C6         -0.1531   -4.3139   -2.1260 C.ar      1 <0>        -0.1988
      7 C7         -0.0270   -4.8673   -0.8537 C.ar      1 <0>         0.1469
      8 N1          0.0674   -4.1201    0.2193 N.ar      1 <0>        -0.4735
      9 C8          0.0480   -2.7843    0.1427 C.ar      1 <0>         0.3067
     10 N2          0.1463   -2.0348    1.2423 N.ar      1 <0>        -0.4796
     11 C9          0.1355   -0.7188    1.2033 C.ar      1 <0>         0.2301
     12 C10         0.2553    0.0346    2.4733 C.ar      1 <0>        -0.0326
     13 C11         0.9388    1.2509    2.5014 C.ar      1 <0>        -0.0991
     14 C12         1.0500    1.9510    3.6820 C.ar      1 <0>        -0.1064
     15 C13         0.4799    1.4442    4.8499 C.ar      1 <0>        -0.0520
     16 C14        -0.2030    0.2282    4.8222 C.ar      1 <0>        -0.1041
     17 C15        -0.3203   -0.4691    3.6404 C.ar      1 <0>        -0.0734
     18 C16         0.6002    2.1979    6.1209 C.ar      1 <0>        -0.0724
     19 C17         1.8440    2.6650    6.5425 C.ar      1 <0>        -0.0791
     20 C18         1.9502    3.3663    7.7260 C.ar      1 <0>        -0.1298
     21 C19         0.8255    3.6067    8.4955 C.ar      1 <0>        -0.0935
     22 C20        -0.4117    3.1464    8.0847 C.ar      1 <0>        -0.1545
     23 C21        -0.5325    2.4477    6.8976 C.ar      1 <0>         0.1088
     24 F1         -1.7424    2.0028    6.4935 F         1 <0>        -0.1320
     25 C22        -0.2284    0.0043   -2.4866 C.2       1 <0>         0.5330
     26 O1          0.7652    0.2305   -3.1623 O.co2     1 <0>        -0.6692
     27 O2         -1.3295    0.3617   -2.8799 O.co2     1 <0>        -0.6684
     28 H1          1.0198    1.8751   -0.0418 H         1 <0>         0.0726
     29 H2         -0.5651    1.8659   -0.8518 H         1 <0>         0.0781
     30 H3         -0.4741    1.8578    0.9258 H         1 <0>         0.0720
     31 H4         -0.2775   -2.5047   -3.2528 H         1 <0>         0.1420
     32 H5         -0.2295   -4.9560   -2.9910 H         1 <0>         0.1385
     33 H6         -0.0069   -5.9420   -0.7484 H         1 <0>         0.1610
     34 H7          1.3809    1.6430    1.5973 H         1 <0>         0.1435
     35 H8          1.5790    2.8923    3.7038 H         1 <0>         0.1284
     36 H9         -0.6440   -0.1641    5.7266 H         1 <0>         0.1239
     37 H10        -0.8535   -1.4080    3.6180 H         1 <0>         0.1334
     38 H11         2.7233    2.4781    5.9439 H         1 <0>         0.1354
     39 H12         2.9138    3.7284    8.0529 H         1 <0>         0.1306
     40 H13         0.9147    4.1559    9.4212 H         1 <0>         0.1315
     41 H14        -1.2859    3.3367    8.6897 H         1 <0>         0.1356
@<TRIPOS>BOND
     1    1    2 1
     2    1   28 1
     3    1   29 1
     4    1   30 1
     5    2   11 ar
     6    2    3 ar
     7    3    4 ar
     8    3   25 1
     9    4    9 ar
    10    4    5 ar
    11    5    6 ar
    12    5   31 1
    13    6    7 ar
    14    6   32 1
    15    7    8 ar
    16    7   33 1
    17    8    9 ar
    18    9   10 ar
    19   10   11 ar
    20   11   12 1
    21   12   17 ar
    22   12   13 ar
    23   13   14 ar
    24   13   34 1
    25   14   15 ar
    26   14   35 1
    27   15   16 ar
    28   15   18 1
    29   16   17 ar
    30   16   36 1
    31   17   37 1
    32   18   23 ar
    33   18   19 ar
    34   19   20 ar
    35   19   38 1
    36   20   21 ar
    37   20   39 1
    38   21   22 ar
    39   21   40 1
    40   22   23 ar
    41   22   41 1
    42   23   24 1
    43   25   26 2
    44   25   27 1
@<TRIPOS>MOLECULE
CHEMBL538406
   42    44     0     0     0
SMALL
USER_CHARGES

@<TRIPOS>ATOM
      1 C1         -0.0126    1.3966   -0.2104 C.ar      1 <0>        -0.0797
      2 C2          1.1746    2.0950   -0.2060 C.ar      1 <0>        -0.1203
      3 C3          2.3784    1.4227   -0.0245 C.ar      1 <0>         0.1944
      4 C4          2.3890    0.0433    0.1526 C.ar      1 <0>        -0.1689
      5 C5          1.2061   -0.6624    0.1489 C.ar      1 <0>        -0.0839
      6 C6         -0.0063    0.0099   -0.0322 C.ar      1 <0>        -0.1125
      7 C7         -1.2737   -0.7409   -0.0358 C.2       1 <0>        -0.0605
      8 C8         -1.2656   -2.0729    0.1355 C.2       1 <0>        -0.1512
      9 C9         -2.5335   -2.8240    0.1319 C.ar      1 <0>        -0.0311
     10 C10        -3.7456   -2.1540   -0.0553 C.ar      1 <0>        -0.1105
     11 C11        -4.9284   -2.8629   -0.0575 C.ar      1 <0>        -0.1049
     12 C12        -4.9169   -4.2358    0.1252 C.ar      1 <0>        -0.0452
     13 C13        -3.7192   -4.9059    0.3116 C.ar      1 <0>        -0.1068
     14 C14        -2.5287   -4.2101    0.3099 C.ar      1 <0>        -0.1046
     15 Cl1        -6.4105   -5.1205    0.1210 Cl        1 <0>        -0.0775
     16 N1          3.5801    2.1346   -0.0207 N.pl3     1 <0>        -0.6759
     17 C15         3.6210    3.3978    0.4838 C.2       1 <0>         0.5452
     18 O1          2.5333    3.9196    1.0809 O.3       1 <0>        -0.6149
     19 C16         4.7926    4.1536    0.3821 C.2       1 <0>        -0.4415
     20 C17         4.8350    5.4616    0.9044 C.2       1 <0>         0.4454
     21 C18         6.0980    6.2763    0.7947 C.3       1 <0>        -0.1990
     22 C19         5.9516    7.7698    0.4966 C.3       1 <0>        -0.1603
     23 C20         6.3721    7.3060    1.8926 C.3       1 <0>        -0.1613
     24 O2          3.8531    5.9326    1.4433 O.2       1 <0>        -0.5010
     25 C21         5.9498    3.5985   -0.2531 C.1       1 <0>         0.3015
     26 N2          6.8678    3.1581   -0.7569 N.1       1 <0>        -0.5422
     27 H1         -0.9473    1.9200   -0.3469 H         1 <0>         0.1224
     28 H2          1.1706    3.1662   -0.3439 H         1 <0>         0.1453
     29 H3          3.3259   -0.4753    0.2928 H         1 <0>         0.1211
     30 H4          1.2152   -1.7337    0.2858 H         1 <0>         0.1217
     31 H5         -2.2094   -0.2202   -0.1763 H         1 <0>         0.1193
     32 H6         -0.3299   -2.5937    0.2759 H         1 <0>         0.1246
     33 H7         -3.7560   -1.0835   -0.1975 H         1 <0>         0.1351
     34 H8         -5.8658   -2.3464   -0.2017 H         1 <0>         0.1326
     35 H9         -3.7174   -5.9765    0.4543 H         1 <0>         0.1321
     36 H10        -1.5951   -4.7345    0.4506 H         1 <0>         0.1334
     37 H11         4.3855    1.7286   -0.3776 H         1 <0>         0.4016
     38 H12         6.9555    5.7586    0.3648 H         1 <0>         0.1025
     39 H13         6.7129    8.2350   -0.1297 H         1 <0>         0.0891
     40 H14         4.9418    8.1631    0.3799 H         1 <0>         0.0980
     41 H15         5.6389    7.3941    2.6944 H         1 <0>         0.0995
     42 H16         7.4100    7.4660    2.1848 H         1 <0>         0.0889
@<TRIPOS>BOND
     1    1    6 ar
     2    1    2 ar
     3    1   27 1
     4    2    3 ar
     5    2   28 1
     6    3    4 ar
     7    3   16 1
     8    4    5 ar
     9    4   29 1
    10    5    6 ar
    11    5   30 1
    12    6    7 1
    13    7    8 2
    14    7   31 1
    15    8    9 1
    16    8   32 1
    17    9   14 ar
    18    9   10 ar
    19   10   11 ar
    20   10   33 1
    21   11   12 ar
    22   11   34 1
    23   12   13 ar
    24   12   15 1
    25   13   14 ar
    26   13   35 1
    27   14   36 1
    28   16   17 1
    29   16   37 1
    30   17   18 1
    31   17   19 2
    32   19   25 1
    33   19   20 1
    34   20   24 2
    35   20   21 1
    36   21   23 1
    37   21   22 1
    38   21   38 1
    39   22   23 1
    40   22   39 1
    41   22   40 1
    42   23   41 1
    43   23   42 1
    44   25   26 3
@<TRIPOS>MOLECULE
CHEMBL538406__1
   43    45     0     0     0
SMALL
NO_CHARGES

@<TRIPOS>ATOM
      1 C1         -0.0143    1.3812   -0.0010 C.ar      1 <0>        -0.0864
      2 C2          1.1678    2.0883   -0.0015 C.ar      1 <0>        -0.1377
      3 C3          2.3836    1.4139   -0.0207 C.ar      1 <0>         0.1419
      4 C4          2.4117    0.0238   -0.0393 C.ar      1 <0>        -0.1162
      5 C5          1.2341   -0.6908   -0.0389 C.ar      1 <0>        -0.0915
      6 C6          0.0095   -0.0166   -0.0192 C.ar      1 <0>        -0.0694
      7 C7         -1.2524   -0.7768   -0.0183 C.2       1 <0>        -0.0970
      8 C8         -1.2274   -2.1195   -0.0359 C.2       1 <0>        -0.1123
      9 C9         -2.4896   -2.8800   -0.0349 C.ar      1 <0>        -0.0498
     10 C10        -3.7144   -2.2072   -0.0215 C.ar      1 <0>        -0.1029
     11 C11        -4.8918   -2.9250   -0.0211 C.ar      1 <0>        -0.1075
     12 C12        -4.8624   -4.3096   -0.0340 C.ar      1 <0>        -0.0359
     13 C13        -3.6520   -4.9827   -0.0473 C.ar      1 <0>        -0.1080
     14 C14        -2.4672   -4.2772   -0.0531 C.ar      1 <0>        -0.0960
     15 Cl1        -6.3493   -5.2055   -0.0328 Cl        1 <0>        -0.0687
     16 N1          3.5808    2.1352   -0.0216 N.am      1 <0>        -0.6670
     17 C15         4.6564    1.6567    0.6347 C.2       1 <0>         0.5261
     18 O1          4.6116    0.5623    1.1556 O.2       1 <0>        -0.4694
     19 C16         5.9147    2.4815    0.7212 C.3       1 <0>        -0.0511
     20 C17         6.9584    1.7250    1.5018 C.2       1 <0>         0.3961
     21 C18         7.9884    2.4753    2.3064 C.3       1 <0>        -0.2233
     22 C19         8.3864    1.8922    3.6638 C.3       1 <0>        -0.1425
     23 C20         9.3594    1.8203    2.4853 C.3       1 <0>        -0.1476
     24 O2          6.9695    0.5176    1.4826 O.2       1 <0>        -0.3901
     25 C21         6.4176    2.7531   -0.6353 C.1       1 <0>         0.2014
     26 N2          6.8057    2.9627   -1.6822 N.1       1 <0>        -0.3700
     27 H1         -0.9582    1.9057    0.0181 H         1 <0>         0.1315
     28 H2          1.1503    3.1681    0.0126 H         1 <0>         0.1302
     29 H3          3.3581   -0.4963   -0.0546 H         1 <0>         0.1418
     30 H4          1.2567   -1.7705   -0.0542 H         1 <0>         0.1305
     31 H5         -2.1975   -0.2545   -0.0034 H         1 <0>         0.1249
     32 H6         -0.2822   -2.6418   -0.0507 H         1 <0>         0.1265
     33 H7         -3.7388   -1.1275   -0.0111 H         1 <0>         0.1348
     34 H8         -5.8390   -2.4063   -0.0104 H         1 <0>         0.1353
     35 H9         -3.6361   -6.0626   -0.0572 H         1 <0>         0.1357
     36 H10        -1.5241   -4.8033   -0.0680 H         1 <0>         0.1352
     37 H11         3.6376    2.9802   -0.4946 H         1 <0>         0.4136
     38 H12         7.9574    3.5609    2.2142 H         1 <0>         0.1320
     39 H13         8.6172    2.5942    4.4650 H         1 <0>         0.1104
     40 H14         7.9033    0.9659    3.9749 H         1 <0>         0.1067
     41 H15         9.5165    0.8467    2.0210 H         1 <0>         0.1058
     42 H16        10.2305    2.4750    2.5112 H         1 <0>         0.1095
     43 H17         5.6974    3.4240    1.2237 H         1 <0>         0.1704
@<TRIPOS>BOND
     1    1    6 ar
     2    1    2 ar
     3    1   27 1
     4    2    3 ar
     5    2   28 1
     6    3    4 ar
     7    3   16 1
     8    4    5 ar
     9    4   29 1
    10    5    6 ar
    11    5   30 1
    12    6    7 1
    13    7    8 2
    14    7   31 1
    15    8    9 1
    16    8   32 1
    17    9   14 ar
    18    9   10 ar
    19   10   11 ar
    20   10   33 1
    21   11   12 ar
    22   11   34 1
    23   12   13 ar
    24   12   15 1
    25   13   14 ar
    26   13   35 1
    27   14   36 1
    28   16   17 am
    29   16   37 1
    30   17   18 2
    31   17   19 1
    32   19   25 1
    33   19   43 1
    34   19   20 1
    35   20   24 2
    36   20   21 1
    37   21   23 1
    38   21   22 1
    39   21   38 1
    40   22   23 1
    41   22   39 1
    42   22   40 1
    43   23   41 1
    44   23   42 1
    45   25   26 3
@<TRIPOS>MOLECULE
CHEMBL143196
   40    42     0     0     0
SMALL
USER_CHARGES

@<TRIPOS>ATOM
      1 C1          0.4479    1.5569   -1.0107 C.ar      1 <0>        -0.0598
      2 C2          1.7339    2.0316   -1.1309 C.ar      1 <0>        -0.1807
      3 C3          2.8112    1.2272   -0.7698 C.ar      1 <0>         0.2206
      4 C4          2.5919   -0.0596   -0.2860 C.ar      1 <0>        -0.1323
      5 C5          1.3086   -0.5409   -0.1631 C.ar      1 <0>        -0.0371
      6 C6          0.2238    0.2645   -0.5250 C.ar      1 <0>        -0.2081
      7 C7         -1.1530   -0.2475   -0.3942 C.2       1 <0>         0.4431
      8 O1         -1.3912   -1.1630    0.3699 O.2       1 <0>        -0.4540
      9 C8         -2.2427    0.3516   -1.1915 C.ar      1 <0>        -0.1470
     10 C9         -1.9510    1.0444   -2.3691 C.ar      1 <0>        -0.0670
     11 C10        -2.9725    1.6014   -3.1087 C.ar      1 <0>        -0.1221
     12 C11        -4.2859    1.4755   -2.6863 C.ar      1 <0>        -0.0127
     13 C12        -4.5816    0.7900   -1.5192 C.ar      1 <0>        -0.1223
     14 C13        -3.5697    0.2228   -0.7742 C.ar      1 <0>        -0.0539
     15 Cl1        -5.5664    2.1801   -3.6229 Cl        1 <0>        -0.0673
     16 N1          4.1115    1.7108   -0.8933 N.pl3     1 <0>        -0.6737
     17 C14         5.0699    1.3214   -0.0075 C.2       1 <0>         0.5430
     18 O2          4.7360    0.5698    1.0579 O.3       1 <0>        -0.6103
     19 C15         6.3999    1.7023   -0.2047 C.2       1 <0>        -0.4390
     20 C16         7.3916    1.2994    0.7121 C.2       1 <0>         0.4456
     21 C17         8.8259    1.7101    0.4994 C.3       1 <0>        -0.1994
     22 C18         9.6432    2.0884    1.7362 C.3       1 <0>        -0.1603
     23 C19         9.9147    0.7668    1.0148 C.3       1 <0>        -0.1609
     24 O3          7.0902    0.6209    1.6738 O.2       1 <0>        -0.4991
     25 C20         6.7551    2.5020   -1.3382 C.1       1 <0>         0.3007
     26 N2          7.0369    3.1364   -2.2375 N.1       1 <0>        -0.5398
     27 H1         -0.3875    2.1831   -1.2869 H         1 <0>         0.1308
     28 H2          1.9077    3.0292   -1.5063 H         1 <0>         0.1271
     29 H3          3.4300   -0.6811   -0.0072 H         1 <0>         0.1509
     30 H4          1.1393   -1.5394    0.2120 H         1 <0>         0.1304
     31 H5         -0.9275    1.1438   -2.6991 H         1 <0>         0.1504
     32 H6         -2.7483    2.1372   -4.0192 H         1 <0>         0.1403
     33 H7         -5.6074    0.6959   -1.1947 H         1 <0>         0.1388
     34 H8         -3.8019   -0.3158    0.1326 H         1 <0>         0.1423
     35 H9          9.0271    2.2547   -0.4231 H         1 <0>         0.1028
     36 H10        10.3823    2.8822    1.6276 H         1 <0>         0.0894
     37 H11         9.1435    2.0403    2.7037 H         1 <0>         0.0981
     38 H12         9.5936   -0.1508    1.5076 H         1 <0>         0.0997
     39 H13        10.8324    0.6911    0.4315 H         1 <0>         0.0892
     40 H14         4.3346    2.3249   -1.6103 H         1 <0>         0.4037
@<TRIPOS>BOND
     1    1    6 ar
     2    1    2 ar
     3    1   27 1
     4    2    3 ar
     5    2   28 1
     6    3    4 ar
     7    3   16 1
     8    4    5 ar
     9    4   29 1
    10    5    6 ar
    11    5   30 1
    12    6    7 1
    13    7    8 2
    14    7    9 1
    15    9   14 ar
    16    9   10 ar
    17   10   11 ar
    18   10   31 1
    19   11   12 ar
    20   11   32 1
    21   12   13 ar
    22   12   15 1
    23   13   14 ar
    24   13   33 1
    25   14   34 1
    26   16   17 1
    27   16   40 1
    28   17   18 1
    29   17   19 2
    30   19   25 1
    31   19   20 1
    32   20   24 2
    33   20   21 1
    34   21   23 1
    35   21   22 1
    36   21   35 1
    37   22   23 1
    38   22   36 1
    39   22   37 1
    40   23   38 1
    41   23   39 1
    42   25   26 3
@<TRIPOS>MOLECULE
CHEMBL143196__1
   41    43     0     0     0
SMALL
NO_CHARGES

@<TRIPOS>ATOM
      1 C1          0.5245    1.2151   -0.3280 C.ar      1 <0>        -0.0609
      2 C2          1.8808    1.4420   -0.3819 C.ar      1 <0>        -0.1279
      3 C3          2.7672    0.4942    0.1213 C.ar      1 <0>         0.1733
      4 C4          2.2860   -0.6861    0.6801 C.ar      1 <0>        -0.1494
      5 C5          0.9311   -0.9200    0.7375 C.ar      1 <0>        -0.0397
      6 C6          0.0372    0.0303    0.2333 C.ar      1 <0>        -0.1733
      7 C7         -1.4156   -0.2166    0.2929 C.2       1 <0>         0.4412
      8 O1         -1.8661   -1.0012    1.1053 O.2       1 <0>        -0.4421
      9 C8         -2.3234    0.4894   -0.6343 C.ar      1 <0>        -0.1565
     10 C9         -1.8355    1.0032   -1.8383 C.ar      1 <0>        -0.0686
     11 C10        -2.6878    1.6610   -2.6993 C.ar      1 <0>        -0.1209
     12 C11        -4.0254    1.8135   -2.3725 C.ar      1 <0>        -0.0077
     13 C12        -4.5154    1.3062   -1.1801 C.ar      1 <0>        -0.1196
     14 C13        -3.6746    0.6409   -0.3134 C.ar      1 <0>        -0.0495
     15 Cl1        -5.0920    2.6441   -3.4616 Cl        1 <0>        -0.0583
     16 N1          4.1402    0.7276    0.0649 N.am      1 <0>        -0.6688
     17 C14         4.6207    1.9721    0.2566 C.2       1 <0>         0.5274
     18 O2          3.8556    2.9020    0.4005 O.2       1 <0>        -0.4656
     19 C15         6.1087    2.2082    0.2921 C.3       1 <0>        -0.0505
     20 C16         6.3796    3.6733    0.5179 C.2       1 <0>         0.3954
     21 C17         7.6265    4.3047   -0.0458 C.3       1 <0>        -0.2233
     22 C18         7.5075    5.7216   -0.6108 C.3       1 <0>        -0.1422
     23 C19         8.2276    5.4860    0.7184 C.3       1 <0>        -0.1477
     24 O3          5.5975    4.3415    1.1505 O.2       1 <0>        -0.3891
     25 C20         6.7038    1.4247    1.3869 C.1       1 <0>         0.2010
     26 N2          7.1631    0.8201    2.2319 N.1       1 <0>        -0.3682
     27 H1         -0.1629    1.9530   -0.7146 H         1 <0>         0.1414
     28 H2          2.2578    2.3565   -0.8154 H         1 <0>         0.1465
     29 H3          2.9768   -1.4196    1.0689 H         1 <0>         0.1355
     30 H4          0.5584   -1.8363    1.1710 H         1 <0>         0.1400
     31 H5         -0.7928    0.8856   -2.0938 H         1 <0>         0.1465
     32 H6         -2.3118    2.0587   -3.6304 H         1 <0>         0.1425
     33 H7         -5.5591    1.4286   -0.9308 H         1 <0>         0.1424
     34 H8         -4.0587    0.2417    0.6137 H         1 <0>         0.1437
     35 H9          4.7499   -0.0058   -0.1122 H         1 <0>         0.4165
     36 H10         8.3169    3.6216   -0.5406 H         1 <0>         0.1322
     37 H11         8.1195    5.9708   -1.4776 H         1 <0>         0.1106
     38 H12         6.5273    6.1971   -0.5747 H         1 <0>         0.1068
     39 H13         7.7213    5.8065    1.6289 H         1 <0>         0.1059
     40 H14         9.3135    5.5803    0.7261 H         1 <0>         0.1097
     41 H15         6.5483    1.8994   -0.6564 H         1 <0>         0.1714
@<TRIPOS>BOND
     1    1    6 ar
     2    1    2 ar
     3    1   27 1
     4    2    3 ar
     5    2   28 1
     6    3    4 ar
     7    3   16 1
     8    4    5 ar
     9    4   29 1
    10    5    6 ar
    11    5   30 1
    12    6    7 1
    13    7    8 2
    14    7    9 1
    15    9   14 ar
    16    9   10 ar
    17   10   11 ar
    18   10   31 1
    19   11   12 ar
    20   11   32 1
    21   12   13 ar
    22   12   15 1
    23   13   14 ar
    24   13   33 1
    25   14   34 1
    26   16   17 am
    27   16   35 1
    28   17   18 2
    29   17   19 1
    30   19   25 1
    31   19   41 1
    32   19   20 1
    33   20   24 2
    34   20   21 1
    35   21   23 1
    36   21   22 1
    37   21   36 1
    38   22   23 1
    39   22   37 1
    40   22   38 1
    41   23   39 1
    42   23   40 1
    43   25   26 3
@<TRIPOS>MOLECULE
CHEMBL141304
   52    54     0     0     0
SMALL
USER_CHARGES

@<TRIPOS>ATOM
      1 C1          2.4334   -4.1919   -4.4710 C.3       1 <0>        -0.1520
      2 C2          1.2544   -3.2432   -4.2456 C.3       1 <0>        -0.1092
      3 C3         -0.0524   -4.0384   -4.2716 C.3       1 <0>        -0.1463
      4 C4          1.4058   -2.5553   -2.8874 C.3       1 <0>         0.1245
      5 N1          2.6118   -1.7234   -2.8930 N.am      1 <0>        -0.7109
      6 C5          3.0062   -1.1009   -1.7646 C.2       1 <0>         0.5872
      7 O1          2.3133   -1.1545   -0.7664 O.2       1 <0>        -0.5221
      8 C6          4.2750   -0.3564   -1.7403 C.2       1 <0>        -0.0338
      9 C7          5.2119   -0.3030   -2.7394 C.2       1 <0>        -0.1181
     10 C8          6.2380    0.5289   -2.2489 C.2       1 <0>        -0.0144
     11 N2          5.8879    0.9184   -1.0368 N.2       1 <0>        -0.2256
     12 N3          4.7466    0.4230   -0.7169 N.pl3     1 <0>        -0.1970
     13 C9          4.0858    0.6430    0.4972 C.ar      1 <0>         0.1140
     14 C10         2.7298    0.9439    0.5067 C.ar      1 <0>        -0.0453
     15 C11         2.0803    1.1606    1.7058 C.ar      1 <0>        -0.0990
     16 C12         2.7792    1.0782    2.8976 C.ar      1 <0>        -0.0168
     17 C13         4.1304    0.7786    2.8910 C.ar      1 <0>        -0.1048
     18 C14         4.7836    0.5554    1.6950 C.ar      1 <0>        -0.0779
     19 Cl1         1.9597    1.3517    4.4033 Cl        1 <0>        -0.0556
     20 C15         7.4789    0.8973   -2.9603 C.2       1 <0>         0.6071
     21 O2          7.6875    0.4707   -4.0795 O.2       1 <0>        -0.5248
     22 N4          8.3800    1.7064   -2.3688 N.am      1 <0>        -0.7121
     23 C16         9.6108    2.0718   -3.0744 C.3       1 <0>         0.1615
     24 C17        10.4405    2.9774   -2.2012 C.ar      1 <0>        -0.1131
     25 C18        10.2660    4.3473   -2.2633 C.ar      1 <0>        -0.0990
     26 C19        11.0271    5.1780   -1.4623 C.ar      1 <0>        -0.1215
     27 C20        11.9623    4.6388   -0.5989 C.ar      1 <0>        -0.1098
     28 C21        12.1361    3.2689   -0.5361 C.ar      1 <0>        -0.1216
     29 C22        11.3721    2.4379   -1.3340 C.ar      1 <0>        -0.0992
     30 H1          3.3556   -3.6152   -4.5415 H         1 <0>         0.0550
     31 H2          2.5037   -4.8889   -3.6358 H         1 <0>         0.0585
     32 H3          2.2807   -4.7477   -5.3961 H         1 <0>         0.0613
     33 H4          1.2377   -2.4907   -5.0341 H         1 <0>         0.0792
     34 H5         -0.0357   -4.7908   -3.4832 H         1 <0>         0.0594
     35 H6         -0.8923   -3.3624   -4.1111 H         1 <0>         0.0592
     36 H7         -0.1603   -4.5284   -5.2393 H         1 <0>         0.0630
     37 H8          0.5337   -1.9295   -2.6978 H         1 <0>         0.0727
     38 H9          1.4886   -3.3098   -2.1051 H         1 <0>         0.0755
     39 H10         3.1263   -1.6208   -3.7088 H         1 <0>         0.4053
     40 H11         5.1722   -0.7951   -3.7000 H         1 <0>         0.1766
     41 H12         2.1840    1.0086   -0.4230 H         1 <0>         0.1396
     42 H13         1.0260    1.3948    1.7137 H         1 <0>         0.1460
     43 H14         4.6735    0.7149    3.8224 H         1 <0>         0.1467
     44 H15         5.8369    0.3168    1.6907 H         1 <0>         0.1430
     45 H16         8.2136    2.0468   -1.4759 H         1 <0>         0.4094
     46 H17        10.1782    1.1704   -3.3058 H         1 <0>         0.0813
     47 H18         9.3589    2.5901   -3.9997 H         1 <0>         0.0813
     48 H19         9.5354    4.7686   -2.9379 H         1 <0>         0.1245
     49 H20        10.8913    6.2483   -1.5114 H         1 <0>         0.1250
     50 H21        12.5574    5.2879    0.0264 H         1 <0>         0.1241
     51 H22        12.8670    2.8476    0.1382 H         1 <0>         0.1250
     52 H23        11.5052    1.3674   -1.2823 H         1 <0>         0.1245
@<TRIPOS>BOND
     1    1    2 1
     2    1   30 1
     3    1   31 1
     4    1   32 1
     5    2    3 1
     6    2    4 1
     7    2   33 1
     8    3   34 1
     9    3   35 1
    10    3   36 1
    11    4    5 1
    12    4   37 1
    13    4   38 1
    14    5    6 am
    15    5   39 1
    16    6    7 2
    17    6    8 1
    18    8   12 1
    19    8    9 2
    20    9   10 1
    21    9   40 1
    22   10   11 2
    23   10   20 1
    24   11   12 1
    25   12   13 1
    26   13   18 ar
    27   13   14 ar
    28   14   15 ar
    29   14   41 1
    30   15   16 ar
    31   15   42 1
    32   16   17 ar
    33   16   19 1
    34   17   18 ar
    35   17   43 1
    36   18   44 1
    37   20   21 2
    38   20   22 am
    39   22   23 1
    40   22   45 1
    41   23   24 1
    42   23   46 1
    43   23   47 1
    44   24   29 ar
    45   24   25 ar
    46   25   26 ar
    47   25   48 1
    48   26   27 ar
    49   26   49 1
    50   27   28 ar
    51   27   50 1
    52   28   29 ar
    53   28   51 1
    54   29   52 1
@<TRIPOS>MOLECULE
CHEMBL417722
   49    53     0     0     0
SMALL
USER_CHARGES

@<TRIPOS>ATOM
      1 C1         -1.7390    0.6307    0.1544 C.3       1 <0>        -0.1027
      2 C2         -0.6879   -0.4427    0.0350 C.ar      1 <0>        -0.1315
      3 C3         -0.6249   -1.2383   -1.1009 C.ar      1 <0>        -0.0385
      4 C4          0.4222   -2.2611   -1.1480 C.ar      1 <0>        -0.0719
      5 C5          0.5646   -3.1093   -2.2500 C.ar      1 <0>        -0.1019
      6 C6          1.5552   -4.0499   -2.2540 C.ar      1 <0>         0.0774
      7 C7          2.4259   -4.1740   -1.1706 C.ar      1 <0>        -0.1367
      8 C8          2.3132   -3.3636   -0.0835 C.ar      1 <0>        -0.0712
      9 C9          1.3046   -2.3827   -0.0450 C.ar      1 <0>         0.1203
     10 N1          1.1721   -1.5741    1.0079 N.ar      1 <0>        -0.4836
     11 C10         0.2410   -0.6437    1.0695 C.ar      1 <0>         0.2479
     12 C11         0.1675    0.2145    2.2720 C.2       1 <0>        -0.1194
     13 C12         0.0691    1.5686    2.2980 C.2       1 <0>         0.0804
     14 N2          0.0251    2.0015    3.5886 N.pl3     1 <0>        -0.4756
     15 C13         0.0942    0.9322    4.4527 C.ar      1 <0>         0.1105
     16 C14         0.1803   -0.2331    3.6750 C.ar      1 <0>        -0.0742
     17 C15         0.2577   -1.4815    4.2910 C.ar      1 <0>        -0.0497
     18 C16         0.2463   -1.5715    5.6665 C.ar      1 <0>        -0.1503
     19 C17         0.1583   -0.4291    6.4444 C.ar      1 <0>        -0.0847
     20 C18         0.0886    0.8252    5.8501 C.ar      1 <0>        -0.0692
     21 C19        -0.0079    2.0433    6.6903 C.ar      1 <0>        -0.0362
     22 C20        -1.0786    2.9211    6.5293 C.ar      1 <0>        -0.1111
     23 C21        -1.1634    4.0530    7.3143 C.ar      1 <0>        -0.1206
     24 C22        -0.1883    4.3173    8.2592 C.ar      1 <0>        -0.1228
     25 C23         0.8767    3.4499    8.4231 C.ar      1 <0>        -0.1194
     26 C24         0.9687    2.3118    7.6479 C.ar      1 <0>        -0.1074
     27 C25        -0.0798    3.4041    3.9985 C.3       1 <0>         0.0733
     28 F1          1.6932   -4.8698   -3.3188 F         1 <0>        -0.1431
     29 C26        -1.5753   -1.0609   -2.2160 C.2       1 <0>         0.5330
     30 O1         -1.2814   -0.3433   -3.1616 O.co2     1 <0>        -0.6719
     31 O2         -2.6567   -1.6314   -2.1944 O.co2     1 <0>        -0.6711
     32 H1         -1.3231    1.5842   -0.1711 H         1 <0>         0.0650
     33 H2         -2.5932    0.3740   -0.4721 H         1 <0>         0.0762
     34 H3         -2.0608    0.7101    1.1927 H         1 <0>         0.0656
     35 H4         -0.1047   -3.0216   -3.0931 H         1 <0>         0.1424
     36 H5          3.2012   -4.9254   -1.1953 H         1 <0>         0.1362
     37 H6          2.9950   -3.4729    0.7470 H         1 <0>         0.1402
     38 H7          0.0317    2.2060    1.4269 H         1 <0>         0.1756
     39 H8          0.3262   -2.3770    3.6912 H         1 <0>         0.1250
     40 H9          0.3061   -2.5399    6.1409 H         1 <0>         0.1237
     41 H10         0.1504   -0.5132    7.5211 H         1 <0>         0.1233
     42 H11        -1.8400    2.7161    5.7914 H         1 <0>         0.1218
     43 H12        -1.9925    4.7339    7.1904 H         1 <0>         0.1226
     44 H13        -0.2586    5.2044    8.8711 H         1 <0>         0.1203
     45 H14         1.6353    3.6614    9.1621 H         1 <0>         0.1221
     46 H15         1.7980    1.6327    7.7801 H         1 <0>         0.1240
     47 H16        -1.1244    3.6493    4.1905 H         1 <0>         0.0725
     48 H17         0.5032    3.5621    4.9058 H         1 <0>         0.0837
     49 H18         0.3036    4.0444    3.2041 H         1 <0>         0.0824
@<TRIPOS>BOND
     1    1    2 1
     2    1   32 1
     3    1   33 1
     4    1   34 1
     5    2   11 ar
     6    2    3 ar
     7    3    4 ar
     8    3   29 1
     9    4    9 ar
    10    4    5 ar
    11    5    6 ar
    12    5   35 1
    13    6    7 ar
    14    6   28 1
    15    7    8 ar
    16    7   36 1
    17    8    9 ar
    18    8   37 1
    19    9   10 ar
    20   10   11 ar
    21   11   12 1
    22   12   16 1
    23   12   13 2
    24   13   14 1
    25   13   38 1
    26   14   15 1
    27   14   27 1
    28   15   20 ar
    29   15   16 ar
    30   16   17 ar
    31   17   18 ar
    32   17   39 1
    33   18   19 ar
    34   18   40 1
    35   19   20 ar
    36   19   41 1
    37   20   21 1
    38   21   26 ar
    39   21   22 ar
    40   22   23 ar
    41   22   42 1
    42   23   24 ar
    43   23   43 1
    44   24   25 ar
    45   24   44 1
    46   25   26 ar
    47   25   45 1
    48   26   46 1
    49   27   47 1
    50   27   48 1
    51   27   49 1
    52   29   30 2
    53   29   31 1
@<TRIPOS>MOLECULE
CHEMBL341925
   49    52     0     0     0
SMALL
USER_CHARGES

@<TRIPOS>ATOM
      1 C1         -1.0293   -0.5600   -1.5448 C.ar      1 <0>        -0.1274
      2 C2         -0.7841   -1.7519   -2.2017 C.ar      1 <0>        -0.1019
      3 C3          0.3867   -2.4449   -1.9641 C.ar      1 <0>        -0.1369
      4 C4          1.3185   -1.9432   -1.0646 C.ar      1 <0>         0.1379
      5 C5          1.0694   -0.7455   -0.4069 C.ar      1 <0>        -0.1138
      6 C6         -0.1036   -0.0577   -0.6487 C.ar      1 <0>        -0.1028
      7 N1          2.5047   -2.6426   -0.8214 N.am      1 <0>        -0.6558
      8 C7          3.6593   -1.9702   -0.6445 C.2       1 <0>         0.5909
      9 O1          3.6555   -0.7543   -0.6075 O.2       1 <0>        -0.5041
     10 C8          4.9239   -2.7065   -0.4962 C.2       1 <0>        -0.0359
     11 C9          5.0884   -4.0670   -0.5349 C.2       1 <0>        -0.1140
     12 C10         6.4677   -4.2846   -0.3463 C.2       1 <0>        -0.0147
     13 N2          7.0411   -3.1031   -0.2096 N.2       1 <0>        -0.2221
     14 N3          6.1672   -2.1657   -0.2985 N.pl3     1 <0>        -0.1937
     15 C11         6.4432   -0.7968   -0.2034 C.ar      1 <0>         0.1090
     16 C12         5.6576    0.0170    0.6028 C.ar      1 <0>        -0.0436
     17 C13         5.9324    1.3671    0.6953 C.ar      1 <0>        -0.0996
     18 C14         6.9895    1.9096   -0.0145 C.ar      1 <0>        -0.0150
     19 C15         7.7739    1.1010   -0.8185 C.ar      1 <0>        -0.1054
     20 C16         7.5068   -0.2507   -0.9104 C.ar      1 <0>        -0.0764
     21 Cl1         7.3319    3.6074    0.1036 Cl        1 <0>        -0.0542
     22 C17         7.1480   -5.5952   -0.3080 C.2       1 <0>         0.6085
     23 O2          6.5055   -6.6179   -0.4470 O.2       1 <0>        -0.5220
     24 N4          8.4810   -5.6573   -0.1190 N.am      1 <0>        -0.7137
     25 C18         9.1557   -6.9572   -0.0810 C.3       1 <0>         0.1667
     26 C19        10.6319   -6.7506    0.1408 C.ar      1 <0>        -0.1662
     27 C20        11.4890   -6.5949   -0.9381 C.ar      1 <0>        -0.0543
     28 C21        12.8393   -6.4075   -0.6864 C.ar      1 <0>        -0.1736
     29 C22        13.2833   -6.3822    0.6224 C.ar      1 <0>         0.1085
     30 N5         12.4393   -6.5341    1.6239 N.ar      1 <0>        -0.4845
     31 C23        11.1477   -6.7083    1.4221 C.ar      1 <0>         0.1208
     32 H1         -1.9437   -0.0179   -1.7354 H         1 <0>         0.1253
     33 H2         -1.5091   -2.1415   -2.9009 H         1 <0>         0.1286
     34 H3          0.5772   -3.3761   -2.4769 H         1 <0>         0.1278
     35 H4          1.7920   -0.3527    0.2931 H         1 <0>         0.1354
     36 H5         -0.2979    0.8737   -0.1376 H         1 <0>         0.1273
     37 H6          2.4966   -3.6117   -0.7801 H         1 <0>         0.4155
     38 H7          4.3222   -4.8145   -0.6790 H         1 <0>         0.1787
     39 H8          4.8323   -0.4058    1.1566 H         1 <0>         0.1414
     40 H9          5.3216    2.0003    1.3217 H         1 <0>         0.1467
     41 H10         8.5982    1.5268   -1.3713 H         1 <0>         0.1470
     42 H11         8.1217   -0.8819   -1.5348 H         1 <0>         0.1428
     43 H12         8.9936   -4.8414   -0.0081 H         1 <0>         0.4092
     44 H13         8.7462   -7.5554    0.7329 H         1 <0>         0.0861
     45 H14         8.9995   -7.4754   -1.0271 H         1 <0>         0.0844
     46 H15        11.1135   -6.6195   -1.9505 H         1 <0>         0.1374
     47 H16        13.5356   -6.2831   -1.5026 H         1 <0>         0.1391
     48 H17        14.3337   -6.2366    0.8269 H         1 <0>         0.1589
     49 H18        10.4861   -6.8239    2.2678 H         1 <0>         0.1576
@<TRIPOS>BOND
     1    1    6 ar
     2    1    2 ar
     3    1   32 1
     4    2    3 ar
     5    2   33 1
     6    3    4 ar
     7    3   34 1
     8    4    5 ar
     9    4    7 1
    10    5    6 ar
    11    5   35 1
    12    6   36 1
    13    7    8 am
    14    7   37 1
    15    8    9 2
    16    8   10 1
    17   10   14 1
    18   10   11 2
    19   11   12 1
    20   11   38 1
    21   12   13 2
    22   12   22 1
    23   13   14 1
    24   14   15 1
    25   15   20 ar
    26   15   16 ar
    27   16   17 ar
    28   16   39 1
    29   17   18 ar
    30   17   40 1
    31   18   19 ar
    32   18   21 1
    33   19   20 ar
    34   19   41 1
    35   20   42 1
    36   22   23 2
    37   22   24 am
    38   24   25 1
    39   24   43 1
    40   25   26 1
    41   25   44 1
    42   25   45 1
    43   26   31 ar
    44   26   27 ar
    45   27   28 ar
    46   27   46 1
    47   28   29 ar
    48   28   47 1
    49   29   30 ar
    50   29   48 1
    51   30   31 ar
    52   31   49 1
@<TRIPOS>MOLECULE
CHEMBL41719
   40    43     0     0     0
SMALL
USER_CHARGES

@<TRIPOS>ATOM
      1 C1          0.2303    1.7486    0.6224 C.ar      1 <0>        -0.1241
      2 C2          1.4407    2.4095    0.5140 C.ar      1 <0>        -0.1187
      3 C3          2.6150    1.6919    0.4122 C.ar      1 <0>        -0.1123
      4 C4          2.5799    0.2984    0.4191 C.ar      1 <0>        -0.0382
      5 C5          1.3574   -0.3621    0.5291 C.ar      1 <0>        -0.1117
      6 C6          0.1894    0.3659    0.6298 C.ar      1 <0>        -0.1182
      7 C7          3.8384   -0.4783    0.3096 C.ar      1 <0>        -0.0462
      8 C8          5.0606    0.1856    0.2051 C.ar      1 <0>        -0.1151
      9 C9          6.2296   -0.5353    0.1038 C.ar      1 <0>        -0.0770
     10 C10         6.1912   -1.9304    0.1056 C.ar      1 <0>        -0.0297
     11 C11         4.9680   -2.5943    0.2102 C.ar      1 <0>        -0.0834
     12 C12         3.8000   -1.8726    0.3168 C.ar      1 <0>        -0.1114
     13 C13         7.4480   -2.7062   -0.0038 C.ar      1 <0>         0.1878
     14 C14         7.5577   -3.9297    0.6923 C.ar      1 <0>         0.0604
     15 C15         8.7407   -4.6657    0.5929 C.ar      1 <0>        -0.0609
     16 C16         9.8086   -4.1090   -0.2424 C.ar      1 <0>        -0.0570
     17 C17        11.0276   -4.7727   -0.4034 C.ar      1 <0>        -0.1047
     18 C18        11.9981   -4.2206   -1.1913 C.ar      1 <0>         0.0867
     19 C19        11.7851   -3.0021   -1.8363 C.ar      1 <0>        -0.1356
     20 C20        10.6089   -2.3317   -1.6987 C.ar      1 <0>        -0.0667
     21 C21         9.5868   -2.8710   -0.8954 C.ar      1 <0>         0.1137
     22 N1          8.4222   -2.2354   -0.7499 N.ar      1 <0>        -0.4691
     23 F1         13.1771   -4.8616   -1.3469 F         1 <0>        -0.1399
     24 C22         8.9078   -5.9453    1.2972 C.2       1 <0>         0.5348
     25 O1          8.5897   -6.9918    0.7485 O.co2     1 <0>        -0.6732
     26 O2          9.3650   -5.9639    2.4321 O.co2     1 <0>        -0.6636
     27 O3          6.5294   -4.3835    1.4471 O.3       1 <0>        -0.4711
     28 H1         -0.6859    2.3143    0.7060 H         1 <0>         0.1203
     29 H2          1.4666    3.4892    0.5087 H         1 <0>         0.1224
     30 H3          3.5594    2.2089    0.3269 H         1 <0>         0.1259
     31 H4          1.3243   -1.4416    0.5346 H         1 <0>         0.1267
     32 H5         -0.7584   -0.1448    0.7146 H         1 <0>         0.1228
     33 H6          5.0902    1.2652    0.2033 H         1 <0>         0.1265
     34 H7          7.1758   -0.0212    0.0225 H         1 <0>         0.1317
     35 H8          4.9379   -3.6739    0.2118 H         1 <0>         0.1278
     36 H9          2.8538   -2.3862    0.4019 H         1 <0>         0.1282
     37 H10        11.2020   -5.7163    0.0922 H         1 <0>         0.1456
     38 H11        12.5660   -2.5841   -2.4542 H         1 <0>         0.1396
     39 H12        10.4602   -1.3890   -2.2044 H         1 <0>         0.1434
     40 H13         5.9051   -4.9434    0.9655 H         1 <0>         0.3832
@<TRIPOS>BOND
     1    1    6 ar
     2    1    2 ar
     3    1   28 1
     4    2    3 ar
     5    2   29 1
     6    3    4 ar
     7    3   30 1
     8    4    5 ar
     9    4    7 1
    10    5    6 ar
    11    5   31 1
    12    6   32 1
    13    7   12 ar
    14    7    8 ar
    15    8    9 ar
    16    8   33 1
    17    9   10 ar
    18    9   34 1
    19   10   11 ar
    20   10   13 1
    21   11   12 ar
    22   11   35 1
    23   12   36 1
    24   13   22 ar
    25   13   14 ar
    26   14   15 ar
    27   14   27 1
    28   15   16 ar
    29   15   24 1
    30   16   21 ar
    31   16   17 ar
    32   17   18 ar
    33   17   37 1
    34   18   19 ar
    35   18   23 1
    36   19   20 ar
    37   19   38 1
    38   20   21 ar
    39   20   39 1
    40   21   22 ar
    41   24   25 2
    42   24   26 1
    43   27   40 1
@<TRIPOS>MOLECULE
CHEMBL106529
   46    50     0     0     0
SMALL
USER_CHARGES

@<TRIPOS>ATOM
      1 C1          0.4424    1.3535    0.4891 C.3       1 <0>         0.0276
      2 O1          0.4121   -0.0737    0.4239 O.3       1 <0>        -0.3156
      3 C2          0.9620   -0.6529   -0.6757 C.ar      1 <0>         0.1208
      4 C3          1.5245    0.1378   -1.6687 C.ar      1 <0>        -0.2018
      5 C4          2.0846   -0.4466   -2.7890 C.ar      1 <0>        -0.0842
      6 C5          2.0884   -1.8202   -2.9270 C.ar      1 <0>        -0.1379
      7 C6          1.5262   -2.6216   -1.9344 C.ar      1 <0>        -0.0042
      8 C7          0.9663   -2.0319   -0.8027 C.ar      1 <0>        -0.1112
      9 C8          1.5288   -4.0970   -2.0799 C.ar      1 <0>         0.1689
     10 C9          2.1935   -4.6794   -3.1590 C.ar      1 <0>        -0.1700
     11 C10         2.1788   -6.0554   -3.2919 C.ar      1 <0>        -0.0314
     12 C11         1.4907   -6.8037   -2.3366 C.ar      1 <0>        -0.0867
     13 C12         0.8708   -6.1577   -1.2671 C.ar      1 <0>         0.1689
     14 N1          0.9035   -4.8433   -1.1786 N.ar      1 <0>        -0.4737
     15 C13         0.1959   -6.9659   -0.1898 C.3       1 <0>        -0.0685
     16 C14        -0.4845   -8.1942   -0.7849 C.3       1 <0>        -0.0706
     17 C15         0.4736   -8.9634   -1.6531 C.ar      1 <0>        -0.1288
     18 C16         1.4255   -8.2828   -2.4320 C.ar      1 <0>         0.2129
     19 N2          2.2553   -8.9243   -3.2306 N.ar      1 <0>        -0.4858
     20 C17         2.2633  -10.2524   -3.3414 C.ar      1 <0>         0.1218
     21 C18         3.1613  -10.9031   -4.2094 C.ar      1 <0>        -0.0701
     22 C19         3.1540  -12.2605   -4.2946 C.ar      1 <0>        -0.1348
     23 C20         2.2678  -13.0256   -3.5345 C.ar      1 <0>         0.0826
     24 C21         1.3797  -12.4278   -2.6861 C.ar      1 <0>        -0.1024
     25 C22         1.3599  -11.0344   -2.5776 C.ar      1 <0>        -0.0672
     26 C23         0.4172  -10.3487   -1.6916 C.ar      1 <0>        -0.0329
     27 C24        -0.5532  -11.1010   -0.8727 C.2       1 <0>         0.5317
     28 O2         -1.6697  -11.3384   -1.3116 O.co2     1 <0>        -0.6679
     29 O3         -0.2408  -11.4870    0.2449 O.co2     1 <0>        -0.6680
     30 F1          2.2885  -14.3724   -3.6393 F         1 <0>        -0.1409
     31 H1          1.4767    1.6965    0.4638 H         1 <0>         0.0544
     32 H2         -0.0987    1.7677   -0.3616 H         1 <0>         0.0547
     33 H3         -0.0277    1.6850    1.4150 H         1 <0>         0.0996
     34 H4          1.5241    1.2129   -1.5656 H         1 <0>         0.1276
     35 H5          2.5202    0.1731   -3.5589 H         1 <0>         0.1280
     36 H6          2.5265   -2.2738   -3.8037 H         1 <0>         0.1298
     37 H7          0.5334   -2.6484   -0.0289 H         1 <0>         0.1451
     38 H8          2.7117   -4.0646   -3.8800 H         1 <0>         0.1404
     39 H9          2.6862   -6.5382   -4.1139 H         1 <0>         0.1485
     40 H10         0.9406   -7.2856    0.5391 H         1 <0>         0.0914
     41 H11        -0.5509   -6.3477    0.3084 H         1 <0>         0.0961
     42 H12        -0.8336   -8.8379    0.0224 H         1 <0>         0.0980
     43 H13        -1.3374   -7.8770   -1.3849 H         1 <0>         0.0811
     44 H14         3.8529  -10.3263   -4.8056 H         1 <0>         0.1417
     45 H15         3.8455  -12.7545   -4.9611 H         1 <0>         0.1384
     46 H16         0.6971  -13.0280   -2.1029 H         1 <0>         0.1448
@<TRIPOS>BOND
     1    1    2 1
     2    1   31 1
     3    1   32 1
     4    1   33 1
     5    2    3 1
     6    3    8 ar
     7    3    4 ar
     8    4    5 ar
     9    4   34 1
    10    5    6 ar
    11    5   35 1
    12    6    7 ar
    13    6   36 1
    14    7    8 ar
    15    7    9 1
    16    8   37 1
    17    9   14 ar
    18    9   10 ar
    19   10   11 ar
    20   10   38 1
    21   11   12 ar
    22   11   39 1
    23   12   18 1
    24   12   13 ar
    25   13   14 ar
    26   13   15 1
    27   15   16 1
    28   15   40 1
    29   15   41 1
    30   16   17 1
    31   16   42 1
    32   16   43 1
    33   17   26 ar
    34   17   18 ar
    35   18   19 ar
    36   19   20 ar
    37   20   25 ar
    38   20   21 ar
    39   21   22 ar
    40   21   44 1
    41   22   23 ar
    42   22   45 1
    43   23   24 ar
    44   23   30 1
    45   24   25 ar
    46   24   46 1
    47   25   26 ar
    48   26   27 1
    49   27   28 2
    50   27   29 1
@<TRIPOS>MOLECULE
CHEMBL321060
   46    50     0     0     0
SMALL
USER_CHARGES

@<TRIPOS>ATOM
      1 C1         -0.2474    1.7283   -0.0180 C.3       1 <0>        -0.1199
      2 C2         -0.2999    0.2231   -0.0702 C.ar      1 <0>        -0.0714
      3 C3         -0.3570   -0.4249   -1.2876 C.ar      1 <0>        -0.1218
      4 C4         -0.4047   -1.8063   -1.3370 C.ar      1 <0>        -0.1184
      5 C5         -0.3960   -2.5464   -0.1681 C.ar      1 <0>        -0.1258
      6 C6         -0.3392   -1.9094    1.0545 C.ar      1 <0>        -0.1025
      7 C7         -0.2851   -0.5174    1.1103 C.ar      1 <0>        -0.0435
      8 C8         -0.2182    0.1729    2.4212 C.ar      1 <0>        -0.0398
      9 C9          0.7453    1.1573    2.6413 C.ar      1 <0>        -0.1174
     10 C10         0.8134    1.7909    3.8630 C.ar      1 <0>        -0.0739
     11 C11        -0.0754    1.4424    4.8765 C.ar      1 <0>        -0.0361
     12 C12        -1.0555    0.4751    4.6512 C.ar      1 <0>        -0.0509
     13 C13        -1.1221   -0.1592    3.4296 C.ar      1 <0>        -0.1088
     14 C14        -2.0591    0.1498    5.7249 C.3       1 <0>        -0.0800
     15 C15        -1.4113    0.2152    7.1047 C.3       1 <0>        -0.0710
     16 C16        -0.6815    1.5184    7.2850 C.ar      1 <0>        -0.1280
     17 C17        -0.0071    2.1078    6.2022 C.ar      1 <0>         0.2107
     18 N1          0.6719    3.2301    6.3342 N.ar      1 <0>        -0.4866
     19 C18         0.7487    3.8910    7.4886 C.ar      1 <0>         0.1216
     20 C19         1.4856    5.0866    7.5927 C.ar      1 <0>        -0.0707
     21 C20         1.5360    5.7473    8.7805 C.ar      1 <0>        -0.1355
     22 C21         0.8699    5.2584    9.9055 C.ar      1 <0>         0.0807
     23 C22         0.1509    4.0986    9.8426 C.ar      1 <0>        -0.1024
     24 C23         0.0805    3.3949    8.6371 C.ar      1 <0>        -0.0691
     25 C24        -0.6678    2.1413    8.5244 C.ar      1 <0>        -0.0363
     26 C25        -1.3788    1.5644    9.6819 C.2       1 <0>         0.5322
     27 O1         -0.8121    0.7610   10.4092 O.co2     1 <0>        -0.6691
     28 O2         -2.5346    1.8898    9.9138 O.co2     1 <0>        -0.6696
     29 F1          0.9374    5.9399   11.0701 F         1 <0>        -0.1416
     30 H1          0.7918    2.0566   -0.0399 H         1 <0>         0.0717
     31 H2         -0.7768    2.1403   -0.8770 H         1 <0>         0.0640
     32 H3         -0.7191    2.0766    0.9009 H         1 <0>         0.0742
     33 H4         -0.3647    0.1478   -2.2032 H         1 <0>         0.1216
     34 H5         -0.4493   -2.3092   -2.2918 H         1 <0>         0.1200
     35 H6         -0.4342   -3.6248   -0.2127 H         1 <0>         0.1220
     36 H7         -0.3328   -2.4881    1.9664 H         1 <0>         0.1250
     37 H8          1.4371    1.4223    1.8554 H         1 <0>         0.1254
     38 H9          1.5555    2.5566    4.0343 H         1 <0>         0.1359
     39 H10        -1.8717   -0.9168    3.2547 H         1 <0>         0.1267
     40 H11        -2.8793    0.8662    5.6788 H         1 <0>         0.0826
     41 H12        -2.4501   -0.8540    5.5588 H         1 <0>         0.0827
     42 H13        -2.1835    0.1269    7.8689 H         1 <0>         0.0913
     43 H14        -0.7061   -0.6093    7.2102 H         1 <0>         0.0787
     44 H15         2.0090    5.4772    6.7325 H         1 <0>         0.1413
     45 H16         2.1008    6.6648    8.8545 H         1 <0>         0.1378
     46 H17        -0.3596    3.7276   10.7190 H         1 <0>         0.1438
@<TRIPOS>BOND
     1    1    2 1
     2    1   30 1
     3    1   31 1
     4    1   32 1
     5    2    7 ar
     6    2    3 ar
     7    3    4 ar
     8    3   33 1
     9    4    5 ar
    10    4   34 1
    11    5    6 ar
    12    5   35 1
    13    6    7 ar
    14    6   36 1
    15    7    8 1
    16    8   13 ar
    17    8    9 ar
    18    9   10 ar
    19    9   37 1
    20   10   11 ar
    21   10   38 1
    22   11   17 1
    23   11   12 ar
    24   12   13 ar
    25   12   14 1
    26   13   39 1
    27   14   15 1
    28   14   40 1
    29   14   41 1
    30   15   16 1
    31   15   42 1
    32   15   43 1
    33   16   25 ar
    34   16   17 ar
    35   17   18 ar
    36   18   19 ar
    37   19   24 ar
    38   19   20 ar
    39   20   21 ar
    40   20   44 1
    41   21   22 ar
    42   21   45 1
    43   22   23 ar
    44   22   29 1
    45   23   24 ar
    46   23   46 1
    47   24   25 ar
    48   25   26 1
    49   26   27 2
    50   26   28 1
@<TRIPOS>MOLECULE
CHEMBL202431
   39    41     0     0     0
SMALL
USER_CHARGES

@<TRIPOS>ATOM
      1 C1          0.4741    0.5450   -1.1875 C.ar      1 <0>        -0.0739
      2 C2          1.6589    1.2536   -1.1968 C.ar      1 <0>        -0.1194
      3 C3          2.3849    1.4122   -0.0178 C.ar      1 <0>        -0.0045
      4 C4          1.9114    0.8542    1.1675 C.ar      1 <0>        -0.1105
      5 C5          0.7218    0.1449    1.1676 C.ar      1 <0>         0.1069
      6 C6          0.0046   -0.0085   -0.0112 C.ar      1 <0>        -0.1871
      7 O1          0.2565   -0.4010    2.3220 O.3       1 <0>        -0.3091
      8 C7         -0.9767   -1.1193    2.2489 C.3       1 <0>         0.6045
      9 F1         -0.8421   -2.1874    1.3555 F         1 <0>        -0.1640
     10 F2         -1.3060   -1.6105    3.5168 F         1 <0>        -0.1308
     11 F3         -1.9893   -0.2631    1.8031 F         1 <0>        -0.1652
     12 C8          3.6586    2.1727   -0.0251 C.ar      1 <0>         0.0038
     13 C9          4.3866    2.3257    1.1537 C.ar      1 <0>        -0.1491
     14 C10         5.5720    3.0340    1.1454 C.ar      1 <0>         0.1420
     15 C11         6.0398    3.5946   -0.0388 C.ar      1 <0>         0.0929
     16 C12         5.3141    3.4431   -1.2160 C.ar      1 <0>         0.1433
     17 C13         4.1315    2.7302   -1.2120 C.ar      1 <0>        -0.1474
     18 F4          5.7694    3.9890   -2.3648 F         1 <0>        -0.1186
     19 N1          7.2414    4.3121   -0.0457 N.am      1 <0>        -0.6992
     20 C14         8.4067    3.6728   -0.2684 C.2       1 <0>         0.5586
     21 O2          8.4070    2.4905   -0.5522 O.2       1 <0>        -0.4327
     22 C15         9.6834    4.4083   -0.1679 C.2       1 <0>        -0.1822
     23 C16         9.7420    5.7533    0.1576 C.2       1 <0>        -0.1440
     24 C17        10.9494    6.3598    0.2313 C.2       1 <0>        -0.2923
     25 S1         12.0542    5.1488   -0.1331 S.3       1 <0>         0.1973
     26 C18        10.9246    3.7940   -0.3891 C.2       1 <0>        -0.1084
     27 C19        11.2165    2.4023   -0.7410 C.2       1 <0>         0.5375
     28 O3         10.3012    1.6009   -0.8794 O.co2     1 <0>        -0.6066
     29 O4         12.3758    2.0404   -0.8967 O.co2     1 <0>        -0.6811
     30 F5          6.2776    3.1828    2.2878 F         1 <0>        -0.1188
     31 H1         -0.0898    0.4266   -2.1009 H         1 <0>         0.1384
     32 H2          2.0233    1.6845   -2.1176 H         1 <0>         0.1386
     33 H3          2.4705    0.9740    2.0837 H         1 <0>         0.1453
     34 H4         -0.9230   -0.5616   -0.0090 H         1 <0>         0.1349
     35 H5          4.0235    1.8909    2.0732 H         1 <0>         0.1491
     36 H6          3.5708    2.6087   -2.1270 H         1 <0>         0.1499
     37 H7          7.2354    5.2696    0.1099 H         1 <0>         0.4043
     38 H8          8.8368    6.3103    0.3493 H         1 <0>         0.1207
     39 H9         11.1563    7.3923    0.4712 H         1 <0>         0.1768
@<TRIPOS>BOND
     1    1    6 ar
     2    1    2 ar
     3    1   31 1
     4    2    3 ar
     5    2   32 1
     6    3    4 ar
     7    3   12 1
     8    4    5 ar
     9    4   33 1
    10    5    6 ar
    11    5    7 1
    12    6   34 1
    13    7    8 1
    14    8    9 1
    15    8   10 1
    16    8   11 1
    17   12   17 ar
    18   12   13 ar
    19   13   14 ar
    20   13   35 1
    21   14   15 ar
    22   14   30 1
    23   15   16 ar
    24   15   19 1
    25   16   17 ar
    26   16   18 1
    27   17   36 1
    28   19   20 am
    29   19   37 1
    30   20   21 2
    31   20   22 1
    32   22   26 2
    33   22   23 1
    34   23   24 2
    35   23   38 1
    36   24   25 1
    37   24   39 1
    38   25   26 1
    39   26   27 1
    40   27   28 2
    41   27   29 1
@<TRIPOS>MOLECULE
CHEMBL107224
   40    44     0     0     0
SMALL
USER_CHARGES

@<TRIPOS>ATOM
      1 C1          0.0081    1.3309    0.2249 C.ar      1 <0>        -0.1230
      2 C2          1.1818    2.0485    0.1462 C.ar      1 <0>        -0.0705
      3 C3          2.4036    1.3814    0.1249 C.ar      1 <0>        -0.0377
      4 C4          2.4469   -0.0111    0.2138 C.ar      1 <0>        -0.0483
      5 C5          1.2732   -0.7284    0.2849 C.ar      1 <0>        -0.1130
      6 C6          0.0475   -0.0620    0.2891 C.ar      1 <0>        -0.0231
      7 C7         -1.2150   -0.8354    0.3625 C.2       1 <0>        -0.0774
      8 C8         -2.4476   -0.1884    0.3630 C.2       1 <0>        -0.1460
      9 C9         -3.5770   -0.9282    0.4305 C.2       1 <0>        -0.1740
     10 S1         -2.9363   -2.5926    0.4972 S.3       1 <0>         0.0323
     11 C10        -1.1962   -2.2016    0.4255 C.2       1 <0>        -0.1645
     12 C11         3.7708   -0.7258    0.2616 C.3       1 <0>        -0.0801
     13 C12         4.7929   -0.0262   -0.6292 C.3       1 <0>        -0.0711
     14 C13         4.8479    1.4446   -0.3170 C.ar      1 <0>        -0.1282
     15 C14         3.6762    2.1398    0.0283 C.ar      1 <0>         0.2109
     16 N1          3.6832    3.4356    0.2719 N.ar      1 <0>        -0.4868
     17 C15         4.7960    4.1679    0.2294 C.ar      1 <0>         0.1215
     18 C16         4.7653    5.5507    0.4934 C.ar      1 <0>        -0.0707
     19 C17         5.9183    6.2714    0.4549 C.ar      1 <0>        -0.1355
     20 C18         7.1381    5.6629    0.1548 C.ar      1 <0>         0.0808
     21 C19         7.2044    4.3248   -0.1115 C.ar      1 <0>        -0.1024
     22 C20         6.0370    3.5567   -0.0827 C.ar      1 <0>        -0.0690
     23 C21         6.0571    2.1217   -0.3737 C.ar      1 <0>        -0.0361
     24 C22         7.3128    1.4242   -0.7131 C.2       1 <0>         0.5322
     25 O1          7.6560    1.3170   -1.8819 O.co2     1 <0>        -0.6690
     26 O2          8.0100    0.9536    0.1745 O.co2     1 <0>        -0.6695
     27 F1          8.2661    6.4059    0.1280 F         1 <0>        -0.1416
     28 H1         -0.9408    1.8464    0.2414 H         1 <0>         0.1253
     29 H2          1.1540    3.1272    0.1007 H         1 <0>         0.1361
     30 H3          1.3018   -1.8068    0.3373 H         1 <0>         0.1266
     31 H4         -2.5008    0.8890    0.3105 H         1 <0>         0.1381
     32 H5         -4.6047   -0.5966    0.4419 H         1 <0>         0.1860
     33 H6         -0.3482   -2.8704    0.4319 H         1 <0>         0.1884
     34 H7          4.1365   -0.7360    1.2883 H         1 <0>         0.0831
     35 H8          3.6377   -1.7517   -0.0818 H         1 <0>         0.0828
     36 H9          5.7761   -0.4661   -0.4621 H         1 <0>         0.0916
     37 H10         4.5119   -0.1616   -1.6736 H         1 <0>         0.0789
     38 H11         3.8295    6.0375    0.7252 H         1 <0>         0.1413
     39 H12         5.8895    7.3314    0.6594 H         1 <0>         0.1378
     40 H13         8.1528    3.8633   -0.3436 H         1 <0>         0.1439
@<TRIPOS>BOND
     1    1    6 ar
     2    1    2 ar
     3    1   28 1
     4    2    3 ar
     5    2   29 1
     6    3   15 1
     7    3    4 ar
     8    4    5 ar
     9    4   12 1
    10    5    6 ar
    11    5   30 1
    12    6    7 1
    13    7   11 2
    14    7    8 1
    15    8    9 2
    16    8   31 1
    17    9   10 1
    18    9   32 1
    19   10   11 1
    20   11   33 1
    21   12   13 1
    22   12   34 1
    23   12   35 1
    24   13   14 1
    25   13   36 1
    26   13   37 1
    27   14   23 ar
    28   14   15 ar
    29   15   16 ar
    30   16   17 ar
    31   17   22 ar
    32   17   18 ar
    33   18   19 ar
    34   18   38 1
    35   19   20 ar
    36   19   39 1
    37   20   21 ar
    38   20   27 1
    39   21   22 ar
    40   21   40 1
    41   22   23 ar
    42   23   24 1
    43   24   25 2
    44   24   26 1
@<TRIPOS>MOLECULE
CHEMBL344913
   32    33     0     0     0
SMALL
USER_CHARGES

@<TRIPOS>ATOM
      1 C1          1.0644   -0.4497   -0.7845 C.ar      1 <0>        -0.0825
      2 C2          2.2494    0.2588   -0.8040 C.ar      1 <0>        -0.1006
      3 C3          2.3782    1.4166   -0.0506 C.ar      1 <0>         0.0602
      4 C4          1.3167    1.8634    0.7228 C.ar      1 <0>        -0.1683
      5 C5          0.1312    1.1558    0.7436 C.ar      1 <0>        -0.1274
      6 C6          0.0013   -0.0031   -0.0106 C.ar      1 <0>         0.1696
      7 N1         -1.2006   -0.7209    0.0097 N.pl3     1 <0>        -0.6749
      8 C7         -1.1850   -2.0767   -0.1005 C.2       1 <0>         0.5458
      9 O1         -0.0123   -2.7373   -0.1154 O.3       1 <0>        -0.6162
     10 C8         -2.3872   -2.7840   -0.1981 C.2       1 <0>        -0.4409
     11 C9         -2.3711   -4.1882   -0.3122 C.2       1 <0>         0.4456
     12 C10        -3.6668   -4.9506   -0.4174 C.3       1 <0>        -0.1991
     13 C11        -3.7058   -6.1497   -1.3669 C.3       1 <0>        -0.1604
     14 C12        -3.6977   -6.3724    0.1467 C.3       1 <0>        -0.1614
     15 O2         -1.3125   -4.7845   -0.3257 O.2       1 <0>        -0.5008
     16 C13        -3.6348   -2.0813   -0.1822 C.1       1 <0>         0.3014
     17 N2         -4.6245   -1.5237   -0.1696 N.1       1 <0>        -0.5419
     18 O3          3.5455    2.1134   -0.0699 O.3       1 <0>        -0.3108
     19 C14         3.6083    3.2962    0.7296 C.3       1 <0>         0.6022
     20 F1          3.3907    2.9644    2.0711 F         1 <0>        -0.1672
     21 F2          4.8702    3.8847    0.5935 F         1 <0>        -0.1377
     22 F3          2.6254    4.1975    0.3068 F         1 <0>        -0.1683
     23 H1          0.9627   -1.3486   -1.3745 H         1 <0>         0.1575
     24 H2          3.0763   -0.0886   -1.4055 H         1 <0>         0.1365
     25 H3          1.4177    2.7648    1.3090 H         1 <0>         0.1292
     26 H4         -0.6948    1.5034    1.3463 H         1 <0>         0.1298
     27 H5         -2.0444   -0.2515    0.1022 H         1 <0>         0.4025
     28 H6         -4.5731   -4.3523   -0.3242 H         1 <0>         0.1026
     29 H7         -4.6379   -6.3404   -1.8987 H         1 <0>         0.0891
     30 H8         -2.7943   -6.3871   -1.9155 H         1 <0>         0.0981
     31 H9         -2.7808   -6.7564    0.5940 H         1 <0>         0.0995
     32 H10        -4.6245   -6.7098    0.6108 H         1 <0>         0.0888
@<TRIPOS>BOND
     1    1    6 ar
     2    1    2 ar
     3    1   23 1
     4    2    3 ar
     5    2   24 1
     6    3    4 ar
     7    3   18 1
     8    4    5 ar
     9    4   25 1
    10    5    6 ar
    11    5   26 1
    12    6    7 1
    13    7    8 1
    14    7   27 1
    15    8    9 1
    16    8   10 2
    17   10   16 1
    18   10   11 1
    19   11   15 2
    20   11   12 1
    21   12   14 1
    22   12   13 1
    23   12   28 1
    24   13   14 1
    25   13   29 1
    26   13   30 1
    27   14   31 1
    28   14   32 1
    29   16   17 3
    30   18   19 1
    31   19   20 1
    32   19   21 1
    33   19   22 1
@<TRIPOS>MOLECULE
CHEMBL344913__1
   33    34     0     0     0
SMALL
NO_CHARGES

@<TRIPOS>ATOM
      1 C1          1.0708   -0.4546   -0.7663 C.ar      1 <0>        -0.0818
      2 C2          2.2562    0.2535   -0.7798 C.ar      1 <0>        -0.1002
      3 C3          2.3791    1.4153   -0.0317 C.ar      1 <0>         0.0936
      4 C4          1.3114    1.8664    0.7305 C.ar      1 <0>        -0.1689
      5 C5          0.1256    1.1590    0.7452 C.ar      1 <0>        -0.0991
      6 C6          0.0017   -0.0036   -0.0037 C.ar      1 <0>         0.1278
      7 N1         -1.2015   -0.7214    0.0101 N.am      1 <0>        -0.6663
      8 C7         -1.1861   -2.0646   -0.0990 C.2       1 <0>         0.5266
      9 O1         -0.1294   -2.6599   -0.1128 O.2       1 <0>        -0.4684
     10 C8         -2.4819   -2.8270   -0.2037 C.3       1 <0>        -0.0506
     11 C9         -2.1898   -4.3012   -0.3144 C.2       1 <0>         0.3954
     12 C10        -3.1306   -5.2008   -1.0738 C.3       1 <0>        -0.2233
     13 C11        -2.5129   -6.3145   -1.9218 C.3       1 <0>        -0.1423
     14 C12        -3.2369   -6.6576   -0.6183 C.3       1 <0>        -0.1478
     15 O2         -1.2019   -4.7617    0.2054 O.2       1 <0>        -0.3891
     16 C13        -3.2967   -2.5769    0.9964 C.1       1 <0>         0.2009
     17 N2         -3.9255   -2.3840    1.9226 N.1       1 <0>        -0.3694
     18 O3          3.5468    2.1118   -0.0451 O.3       1 <0>        -0.3086
     19 C14         3.6032    3.2988    0.7485 C.3       1 <0>         0.6037
     20 F1          3.3745    2.9742    2.0900 F         1 <0>        -0.1644
     21 F2          4.8663    3.8863    0.6197 F         1 <0>        -0.1295
     22 F3          2.6240    4.1981    0.3129 F         1 <0>        -0.1648
     23 H1          0.9738   -1.3566   -1.3523 H         1 <0>         0.1507
     24 H2          3.0880   -0.0973   -1.3727 H         1 <0>         0.1462
     25 H3          1.4077    2.7709    1.3127 H         1 <0>         0.1395
     26 H4         -0.7054    1.5099    1.3392 H         1 <0>         0.1385
     27 H5         -2.0455   -0.2515    0.0982 H         1 <0>         0.4151
     28 H6         -4.0355   -4.7240   -1.4505 H         1 <0>         0.1321
     29 H7         -3.0113   -6.5704   -2.8568 H         1 <0>         0.1105
     30 H8         -1.4260   -6.3965   -1.9304 H         1 <0>         0.1069
     31 H9         -2.6263   -6.9653    0.2306 H         1 <0>         0.1058
     32 H10        -4.2116   -7.1393   -0.6958 H         1 <0>         0.1096
     33 H11        -3.0270   -2.4971   -1.0881 H         1 <0>         0.1717
@<TRIPOS>BOND
     1    1    6 ar
     2    1    2 ar
     3    1   23 1
     4    2    3 ar
     5    2   24 1
     6    3    4 ar
     7    3   18 1
     8    4    5 ar
     9    4   25 1
    10    5    6 ar
    11    5   26 1
    12    6    7 1
    13    7    8 am
    14    7   27 1
    15    8    9 2
    16    8   10 1
    17   10   16 1
    18   10   33 1
    19   10   11 1
    20   11   15 2
    21   11   12 1
    22   12   14 1
    23   12   13 1
    24   12   28 1
    25   13   14 1
    26   13   29 1
    27   13   30 1
    28   14   31 1
    29   14   32 1
    30   16   17 3
    31   18   19 1
    32   19   20 1
    33   19   21 1
    34   19   22 1
@<TRIPOS>MOLECULE
CHEMBL289854
   41    44     0     0     0
SMALL
USER_CHARGES

@<TRIPOS>ATOM
      1 C1         -0.0051    1.5029    0.0091 C.3       1 <0>        -0.1102
      2 C2          0.0084   -0.0040    0.0014 C.ar      1 <0>        -0.1287
      3 C3         -0.0986   -0.6991   -1.1961 C.ar      1 <0>        -0.0198
      4 C4         -0.0787   -2.1624   -1.1298 C.ar      1 <0>         0.0938
      5 C5          0.0475   -2.7774    0.1411 C.ar      1 <0>         0.0797
      6 C6          0.0671   -4.1863    0.2095 C.ar      1 <0>        -0.0543
      7 C7         -0.0367   -4.8906   -0.9556 C.ar      1 <0>        -0.1652
      8 C8         -0.1580   -4.2171   -2.1692 C.ar      1 <0>         0.1099
      9 N1         -0.1763   -2.9057   -2.2291 N.ar      1 <0>        -0.4359
     10 N2          0.1444   -2.0330    1.2413 N.ar      1 <0>        -0.4815
     11 C9          0.1349   -0.7168    1.2042 C.ar      1 <0>         0.2072
     12 C10         0.2549    0.0368    2.4745 C.ar      1 <0>        -0.0292
     13 C11         0.9384    1.2528    2.5025 C.ar      1 <0>        -0.1006
     14 C12         1.0494    1.9532    3.6830 C.ar      1 <0>        -0.1052
     15 C13         0.4790    1.4467    4.8508 C.ar      1 <0>        -0.0533
     16 C14        -0.2043    0.2311    4.8231 C.ar      1 <0>        -0.1039
     17 C15        -0.3205   -0.4668    3.6415 C.ar      1 <0>        -0.0772
     18 C16         0.5995    2.2005    6.1219 C.ar      1 <0>        -0.0724
     19 C17         1.8435    2.6672    6.5436 C.ar      1 <0>        -0.0793
     20 C18         1.9498    3.3685    7.7271 C.ar      1 <0>        -0.1297
     21 C19         0.8251    3.6093    8.4965 C.ar      1 <0>        -0.0935
     22 C20        -0.4123    3.1498    8.0853 C.ar      1 <0>        -0.1544
     23 C21        -0.5331    2.4507    6.8984 C.ar      1 <0>         0.1086
     24 F1         -1.7432    2.0063    6.4942 F         1 <0>        -0.1321
     25 C22        -0.2279    0.0085   -2.4848 C.2       1 <0>         0.5454
     26 O1          0.7661    0.2358   -3.1600 O.co2     1 <0>        -0.6701
     27 O2         -1.3289    0.3676   -2.8775 O.co2     1 <0>        -0.6721
     28 H1          1.0180    1.8756   -0.0414 H         1 <0>         0.0736
     29 H2         -0.5668    1.8656   -0.8518 H         1 <0>         0.0801
     30 H3         -0.4761    1.8574    0.9259 H         1 <0>         0.0722
     31 H4          0.1621   -4.6942    1.1578 H         1 <0>         0.1408
     32 H5         -0.0244   -5.9703   -0.9365 H         1 <0>         0.1383
     33 H6         -0.2389   -4.7876   -3.0826 H         1 <0>         0.1590
     34 H7          1.3807    1.6446    1.5984 H         1 <0>         0.1437
     35 H8          1.5785    2.8945    3.7047 H         1 <0>         0.1283
     36 H9         -0.6459   -0.1609    5.7274 H         1 <0>         0.1233
     37 H10        -0.8532   -1.4061    3.6192 H         1 <0>         0.1317
     38 H11         2.7227    2.4798    5.9451 H         1 <0>         0.1353
     39 H12         2.9135    3.7301    8.0540 H         1 <0>         0.1306
     40 H13         0.9145    4.1582    9.4223 H         1 <0>         0.1316
     41 H14        -1.2865    3.3405    8.6901 H         1 <0>         0.1356
@<TRIPOS>BOND
     1    1    2 1
     2    1   28 1
     3    1   29 1
     4    1   30 1
     5    2   11 ar
     6    2    3 ar
     7    3    4 ar
     8    3   25 1
     9    4    9 ar
    10    4    5 ar
    11    5    6 ar
    12    5   10 ar
    13    6    7 ar
    14    6   31 1
    15    7    8 ar
    16    7   32 1
    17    8    9 ar
    18    8   33 1
    19   10   11 ar
    20   11   12 1
    21   12   17 ar
    22   12   13 ar
    23   13   14 ar
    24   13   34 1
    25   14   15 ar
    26   14   35 1
    27   15   16 ar
    28   15   18 1
    29   16   17 ar
    30   16   36 1
    31   17   37 1
    32   18   23 ar
    33   18   19 ar
    34   19   20 ar
    35   19   38 1
    36   20   21 ar
    37   20   39 1
    38   21   22 ar
    39   21   40 1
    40   22   23 ar
    41   22   41 1
    42   23   24 1
    43   25   26 2
    44   25   27 1
@<TRIPOS>MOLECULE
CHEMBL430760
   47    50     0     0     0
SMALL
USER_CHARGES

@<TRIPOS>ATOM
      1 C1          2.5188   -0.5404    1.1518 C.3       1 <0>        -0.0979
      2 C2          1.1986   -0.8213    0.4815 C.ar      1 <0>        -0.1319
      3 C3          1.1612   -1.2649   -0.8340 C.ar      1 <0>        -0.0337
      4 C4         -0.1566   -1.5178   -1.4197 C.ar      1 <0>        -0.0673
      5 C5         -0.2970   -1.9668   -2.7365 C.ar      1 <0>        -0.1027
      6 C6         -1.5455   -2.1906   -3.2431 C.ar      1 <0>         0.0840
      7 C7         -2.6813   -1.9763   -2.4618 C.ar      1 <0>        -0.1352
      8 C8         -2.5773   -1.5397   -1.1771 C.ar      1 <0>        -0.0688
      9 C9         -1.3072   -1.2988   -0.6222 C.ar      1 <0>         0.1260
     10 N1         -1.1753   -0.8705    0.6358 N.ar      1 <0>        -0.4946
     11 C10        -0.0021   -0.6427    1.1820 C.ar      1 <0>         0.3970
     12 N2          0.0497   -0.2038    2.4985 N.pl3     1 <0>        -0.5763
     13 C11        -0.0725    1.2247    2.7997 C.3       1 <0>         0.0989
     14 C12         0.2184   -1.1249    3.5361 C.ar      1 <0>         0.2281
     15 C13         0.4618   -2.4624    3.2459 C.ar      1 <0>        -0.1721
     16 C14         0.6295   -3.3755    4.2691 C.ar      1 <0>        -0.0712
     17 C15         0.5563   -2.9649    5.5855 C.ar      1 <0>        -0.1622
     18 C16         0.3122   -1.6261    5.8859 C.ar      1 <0>        -0.0117
     19 C17         0.1486   -0.7038    4.8557 C.ar      1 <0>        -0.1786
     20 C18         0.2322   -1.1837    7.3001 C.ar      1 <0>        -0.0355
     21 C19        -0.0175    0.1536    7.6013 C.ar      1 <0>        -0.1108
     22 C20        -0.0907    0.5597    8.9184 C.ar      1 <0>        -0.1191
     23 C21         0.0837   -0.3581    9.9384 C.ar      1 <0>        -0.1247
     24 C22         0.3318   -1.6869    9.6451 C.ar      1 <0>        -0.1196
     25 C23         0.4010   -2.1050    8.3316 C.ar      1 <0>        -0.1106
     26 F1         -1.6821   -2.6240   -4.5154 F         1 <0>        -0.1407
     27 C24         2.3995   -1.4724   -1.6102 C.2       1 <0>         0.5332
     28 O1          2.9069   -2.5836   -1.6663 O.co2     1 <0>        -0.6679
     29 O2          2.9179   -0.5332   -2.1970 O.co2     1 <0>        -0.6692
     30 H1          2.8383   -1.4213    1.7085 H         1 <0>         0.0686
     31 H2          3.2657   -0.2976    0.3959 H         1 <0>         0.0770
     32 H3          2.4073    0.3010    1.8357 H         1 <0>         0.0622
     33 H4          0.5763   -2.1352   -3.3492 H         1 <0>         0.1451
     34 H5         -3.6587   -2.1595   -2.8833 H         1 <0>         0.1386
     35 H6         -3.4666   -1.3784   -0.5858 H         1 <0>         0.1412
     36 H7         -1.1267    1.4906    2.8780 H         1 <0>         0.0533
     37 H8          0.4279    1.4410    3.7436 H         1 <0>         0.0757
     38 H9          0.3904    1.8052    2.0016 H         1 <0>         0.0685
     39 H10         0.5196   -2.7887    2.2180 H         1 <0>         0.1196
     40 H11         0.8181   -4.4137    4.0387 H         1 <0>         0.1238
     41 H12         0.6879   -3.6816    6.3826 H         1 <0>         0.1203
     42 H13        -0.0364    0.3355    5.0835 H         1 <0>         0.1266
     43 H14        -0.1531    0.8712    6.8056 H         1 <0>         0.1246
     44 H15        -0.2843    1.5960    9.1529 H         1 <0>         0.1219
     45 H16         0.0263   -0.0359   10.9676 H         1 <0>         0.1197
     46 H17         0.4673   -2.3993   10.4454 H         1 <0>         0.1219
     47 H18         0.5900   -3.1437    8.1037 H         1 <0>         0.1263
@<TRIPOS>BOND
     1    1    2 1
     2    1   30 1
     3    1   31 1
     4    1   32 1
     5    2   11 ar
     6    2    3 ar
     7    3    4 ar
     8    3   27 1
     9    4    9 ar
    10    4    5 ar
    11    5    6 ar
    12    5   33 1
    13    6    7 ar
    14    6   26 1
    15    7    8 ar
    16    7   34 1
    17    8    9 ar
    18    8   35 1
    19    9   10 ar
    20   10   11 ar
    21   11   12 1
    22   12   13 1
    23   12   14 1
    24   13   36 1
    25   13   37 1
    26   13   38 1
    27   14   19 ar
    28   14   15 ar
    29   15   16 ar
    30   15   39 1
    31   16   17 ar
    32   16   40 1
    33   17   18 ar
    34   17   41 1
    35   18   19 ar
    36   18   20 1
    37   19   42 1
    38   20   25 ar
    39   20   21 ar
    40   21   22 ar
    41   21   43 1
    42   22   23 ar
    43   22   44 1
    44   23   24 ar
    45   23   45 1
    46   24   25 ar
    47   24   46 1
    48   25   47 1
    49   27   28 2
    50   27   29 1
@<TRIPOS>MOLECULE
CHEMBL430760__1
   48    51     0     0     0
SMALL
USER_CHARGES

@<TRIPOS>ATOM
      1 C1          2.5186   -0.5399    1.1515 C.3       1 <0>        -0.1068
      2 C2          1.1984   -0.8207    0.4812 C.ar      1 <0>        -0.1193
      3 C3          1.1609   -1.2639   -0.8343 C.ar      1 <0>         0.0710
      4 C4         -0.1569   -1.5168   -1.4201 C.ar      1 <0>        -0.0483
      5 C5         -0.2973   -1.9654   -2.7370 C.ar      1 <0>        -0.0791
      6 C6         -1.5458   -2.1891   -3.2436 C.ar      1 <0>         0.1157
      7 C7         -2.6817   -1.9750   -2.4621 C.ar      1 <0>        -0.0768
      8 C8         -2.5776   -1.5388   -1.1774 C.ar      1 <0>        -0.1136
      9 C9         -1.3075   -1.2980   -0.6225 C.ar      1 <0>         0.1257
     10 N1         -1.1755   -0.8701    0.6357 N.ar      1 <0>        -0.4783
     11 C10        -0.0023   -0.6424    1.1819 C.ar      1 <0>         0.4662
     12 N2          0.0495   -0.2038    2.4984 N.pl3     1 <0>        -0.6053
     13 C11        -0.0727    1.2246    2.8001 C.3       1 <0>         0.0826
     14 C12         0.2183   -1.1252    3.5358 C.ar      1 <0>         0.1862
     15 C13         0.4618   -2.4626    3.2452 C.ar      1 <0>        -0.1766
     16 C14         0.6295   -3.3760    4.2682 C.ar      1 <0>        -0.0662
     17 C15         0.5563   -2.9658    5.5847 C.ar      1 <0>        -0.1381
     18 C16         0.3122   -1.6271    5.8855 C.ar      1 <0>         0.0024
     19 C17         0.1486   -0.7045    4.8555 C.ar      1 <0>        -0.1566
     20 C18         0.2323   -1.1850    7.2998 C.ar      1 <0>        -0.0548
     21 C19        -0.0175    0.1522    7.6014 C.ar      1 <0>        -0.1070
     22 C20        -0.0907    0.5579    8.9186 C.ar      1 <0>        -0.1183
     23 C21         0.0838   -0.3602    9.9383 C.ar      1 <0>        -0.1124
     24 C22         0.3320   -1.6889    9.6447 C.ar      1 <0>        -0.1170
     25 C23         0.4011   -2.1067    8.3310 C.ar      1 <0>        -0.1044
     26 F1         -1.6825   -2.6221   -4.5160 F         1 <0>        -0.1158
     27 C24         2.3992   -1.4712   -1.6107 C.2       1 <0>         0.5191
     28 O1          2.9067   -2.5823   -1.6672 O.co2     1 <0>        -0.6322
     29 O2          2.9176   -0.5317   -2.1973 O.co2     1 <0>        -0.6335
     30 H1          2.8382   -1.4209    1.7080 H         1 <0>         0.0889
     31 H2          3.2654   -0.2969    0.3957 H         1 <0>         0.0984
     32 H3          2.4071    0.3013    1.8357 H         1 <0>         0.0787
     33 H4          0.5759   -2.1336   -3.3498 H         1 <0>         0.1722
     34 H5         -3.6590   -2.1582   -2.8837 H         1 <0>         0.1643
     35 H6         -3.4668   -1.3777   -0.5860 H         1 <0>         0.1610
     36 H7         -1.1268    1.4905    2.8785 H         1 <0>         0.0655
     37 H8          0.4277    1.4407    3.7440 H         1 <0>         0.0983
     38 H9          0.3902    1.8053    2.0022 H         1 <0>         0.0825
     39 H10         0.5196   -2.7886    2.2172 H         1 <0>         0.1183
     40 H11         0.8182   -4.4141    4.0374 H         1 <0>         0.1340
     41 H12         0.6880   -3.6827    6.3816 H         1 <0>         0.1314
     42 H13        -0.0364    0.3348    5.0837 H         1 <0>         0.1346
     43 H14        -0.1531    0.8699    6.8059 H         1 <0>         0.1230
     44 H15        -0.2842    1.5941    9.1534 H         1 <0>         0.1259
     45 H16         0.0264   -0.0383   10.9677 H         1 <0>         0.1251
     46 H17         0.4675   -2.4015   10.4448 H         1 <0>         0.1270
     47 H18         0.5901   -3.1452    8.1029 H         1 <0>         0.1276
     48 H19        -1.9744   -0.7259    1.1667 H         1 <0>         0.4345
@<TRIPOS>BOND
     1    1    2 1
     2    1   30 1
     3    1   31 1
     4    1   32 1
     5    2   11 ar
     6    2    3 ar
     7    3    4 ar
     8    3   27 1
     9    4    9 ar
    10    4    5 ar
    11    5    6 ar
    12    5   33 1
    13    6    7 ar
    14    6   26 1
    15    7    8 ar
    16    7   34 1
    17    8    9 ar
    18    8   35 1
    19    9   10 ar
    20   10   11 ar
    21   10   48 1
    22   11   12 1
    23   12   13 1
    24   12   14 1
    25   13   36 1
    26   13   37 1
    27   13   38 1
    28   14   19 ar
    29   14   15 ar
    30   15   16 ar
    31   15   39 1
    32   16   17 ar
    33   16   40 1
    34   17   18 ar
    35   17   41 1
    36   18   19 ar
    37   18   20 1
    38   19   42 1
    39   20   25 ar
    40   20   21 ar
    41   21   22 ar
    42   21   43 1
    43   22   23 ar
    44   22   44 1
    45   23   24 ar
    46   23   45 1
    47   24   25 ar
    48   24   46 1
    49   25   47 1
    50   27   28 2
    51   27   29 1
@<TRIPOS>MOLECULE
CHEMBL38614
   43    46     0     0     0
SMALL
USER_CHARGES

@<TRIPOS>ATOM
      1 C1          0.0698    1.4470   -0.0205 C.3       1 <0>        -0.1120
      2 C2         -0.0169   -0.0567    0.0288 C.ar      1 <0>        -0.1299
      3 C3         -0.1463   -0.7903   -1.1437 C.ar      1 <0>        -0.0352
      4 C4         -0.2241   -2.2468   -1.0192 C.ar      1 <0>        -0.0672
      5 C5         -0.3547   -3.0698   -2.1417 C.ar      1 <0>        -0.1031
      6 C6         -0.4234   -4.4244   -1.9807 C.ar      1 <0>         0.0826
      7 C7         -0.3648   -4.9962   -0.7089 C.ar      1 <0>        -0.1353
      8 C8         -0.2379   -4.2230    0.4030 C.ar      1 <0>        -0.0698
      9 C9         -0.1640   -2.8228    0.2755 C.ar      1 <0>         0.1187
     10 N1         -0.0385   -2.0407    1.3480 N.ar      1 <0>        -0.4818
     11 C10         0.0382   -0.7294    1.2591 C.ar      1 <0>         0.2030
     12 C11         0.1821    0.0644    2.5023 C.ar      1 <0>        -0.0318
     13 C12         0.9428    1.2335    2.5009 C.ar      1 <0>        -0.0881
     14 C13         1.0743    1.9699    3.6586 C.ar      1 <0>        -0.1239
     15 C14         0.4506    1.5486    4.8261 C.ar      1 <0>         0.0837
     16 C15        -0.3076    0.3847    4.8307 C.ar      1 <0>        -0.1378
     17 C16        -0.4477   -0.3529    3.6748 C.ar      1 <0>        -0.0661
     18 O1          0.5828    2.2758    5.9654 O.3       1 <0>        -0.2584
     19 C17         1.4638    1.8383    6.9029 C.ar      1 <0>         0.1247
     20 C18         2.1443    0.6439    6.7134 C.ar      1 <0>        -0.1937
     21 C19         3.0397    0.2017    7.6677 C.ar      1 <0>        -0.0817
     22 C20         3.2579    0.9477    8.8112 C.ar      1 <0>        -0.1568
     23 C21         2.5808    2.1380    9.0027 C.ar      1 <0>        -0.0852
     24 C22         1.6889    2.5879    8.0487 C.ar      1 <0>        -0.1489
     25 F1         -0.5500   -5.2201   -3.0652 F         1 <0>        -0.1411
     26 C23        -0.2035   -0.1281   -2.4615 C.2       1 <0>         0.5321
     27 O2          0.8166    0.0082   -3.1221 O.co2     1 <0>        -0.6692
     28 O3         -1.2709    0.2843   -2.8928 O.co2     1 <0>        -0.6689
     29 H1          1.1160    1.7493   -0.0674 H         1 <0>         0.0731
     30 H2         -0.4540    1.8124   -0.9038 H         1 <0>         0.0794
     31 H3         -0.3900    1.8670    0.8742 H         1 <0>         0.0715
     32 H4         -0.4013   -2.6371   -3.1302 H         1 <0>         0.1445
     33 H5         -0.4214   -6.0698   -0.6058 H         1 <0>         0.1383
     34 H6         -0.1944   -4.6813    1.3800 H         1 <0>         0.1417
     35 H7          1.4286    1.5612    1.5936 H         1 <0>         0.1486
     36 H8          1.6632    2.8752    3.6581 H         1 <0>         0.1352
     37 H9         -0.7911    0.0595    5.7401 H         1 <0>         0.1314
     38 H10        -1.0410   -1.2553    3.6779 H         1 <0>         0.1374
     39 H11         1.9737    0.0604    5.8207 H         1 <0>         0.1318
     40 H12         3.5696   -0.7279    7.5207 H         1 <0>         0.1252
     41 H13         3.9582    0.6000    9.5563 H         1 <0>         0.1230
     42 H14         2.7525    2.7185    9.8971 H         1 <0>         0.1289
     43 H15         1.1639    3.5201    8.1964 H         1 <0>         0.1311
@<TRIPOS>BOND
     1    1    2 1
     2    1   29 1
     3    1   30 1
     4    1   31 1
     5    2   11 ar
     6    2    3 ar
     7    3    4 ar
     8    3   26 1
     9    4    9 ar
    10    4    5 ar
    11    5    6 ar
    12    5   32 1
    13    6    7 ar
    14    6   25 1
    15    7    8 ar
    16    7   33 1
    17    8    9 ar
    18    8   34 1
    19    9   10 ar
    20   10   11 ar
    21   11   12 1
    22   12   17 ar
    23   12   13 ar
    24   13   14 ar
    25   13   35 1
    26   14   15 ar
    27   14   36 1
    28   15   16 ar
    29   15   18 1
    30   16   17 ar
    31   16   37 1
    32   17   38 1
    33   18   19 1
    34   19   24 ar
    35   19   20 ar
    36   20   21 ar
    37   20   39 1
    38   21   22 ar
    39   21   40 1
    40   22   23 ar
    41   22   41 1
    42   23   24 ar
    43   23   42 1
    44   24   43 1
    45   26   27 2
    46   26   28 1
@<TRIPOS>MOLECULE
CHEMBL218084
   41    44     0     0     0
SMALL
USER_CHARGES

@<TRIPOS>ATOM
      1 C1          3.9999    1.4129   -3.5274 C.ar      1 <0>        -0.1563
      2 C2          3.8504    0.0383   -3.5352 C.ar      1 <0>        -0.0808
      3 C3          3.7260   -0.6509   -2.3445 C.ar      1 <0>        -0.1919
      4 C4          3.7511    0.0374   -1.1400 C.ar      1 <0>         0.1240
      5 C5          3.9012    1.4169   -1.1350 C.ar      1 <0>        -0.1496
      6 C6          4.0252    2.1012   -2.3285 C.ar      1 <0>        -0.0857
      7 O1          3.6285   -0.6381    0.0326 O.3       1 <0>        -0.2596
      8 C7          3.4933   -1.9884   -0.0206 C.ar      1 <0>         0.0831
      9 C8          2.2280   -2.5555   -0.1037 C.ar      1 <0>        -0.1297
     10 C9          2.0873   -3.9256   -0.1574 C.ar      1 <0>        -0.0668
     11 C10         3.2175   -4.7430   -0.1286 C.ar      1 <0>        -0.0273
     12 C11         4.4870   -4.1702   -0.0455 C.ar      1 <0>        -0.0732
     13 C12         4.6210   -2.7993    0.0026 C.ar      1 <0>        -0.1261
     14 C13         3.0701   -6.2157   -0.1857 C.ar      1 <0>         0.1857
     15 C14         4.0468   -6.9736   -0.8680 C.ar      1 <0>         0.0602
     16 C15         3.9133   -8.3625   -0.9247 C.ar      1 <0>        -0.0594
     17 C16         2.7473   -8.9520   -0.2602 C.ar      1 <0>        -0.0556
     18 C17         2.5287  -10.3321   -0.2626 C.ar      1 <0>        -0.1052
     19 C18         1.4296  -10.8428    0.3687 C.ar      1 <0>         0.0883
     20 C19         0.5238  -10.0015    1.0148 C.ar      1 <0>        -0.1354
     21 C20         0.7095   -8.6534    1.0345 C.ar      1 <0>        -0.0661
     22 C21         1.8307   -8.0930    0.3949 C.ar      1 <0>         0.1132
     23 N1          2.0375   -6.7740    0.4050 N.ar      1 <0>        -0.4672
     24 F1          1.2177  -12.1771    0.3668 F         1 <0>        -0.1393
     25 C22         4.9010   -9.1988   -1.6223 C.2       1 <0>         0.5340
     26 O2          5.8271   -9.7004   -0.9993 O.co2     1 <0>        -0.6726
     27 O3          4.7970   -9.3931   -2.8260 O.co2     1 <0>        -0.6624
     28 O4          5.0992   -6.3613   -1.4603 O.3       1 <0>        -0.4709
     29 H1          4.1014    1.9493   -4.4592 H         1 <0>         0.1232
     30 H2          3.8306   -0.4970   -4.4730 H         1 <0>         0.1262
     31 H3          3.6090   -1.7246   -2.3512 H         1 <0>         0.1313
     32 H4          3.9207    1.9550   -0.1988 H         1 <0>         0.1306
     33 H5          4.1424    3.1748   -2.3251 H         1 <0>         0.1286
     34 H6          1.3534   -1.9222   -0.1260 H         1 <0>         0.1326
     35 H7          1.1032   -4.3659   -0.2214 H         1 <0>         0.1382
     36 H8          5.3639   -4.8003   -0.0227 H         1 <0>         0.1340
     37 H9          5.6036   -2.3551    0.0625 H         1 <0>         0.1343
     38 H10         3.2241  -10.9914   -0.7608 H         1 <0>         0.1462
     39 H11        -0.3386  -10.4265    1.5069 H         1 <0>         0.1402
     40 H12        -0.0015   -8.0159    1.5389 H         1 <0>         0.1439
     41 H13         5.8693   -6.2582   -0.8845 H         1 <0>         0.3832
@<TRIPOS>BOND
     1    1    6 ar
     2    1    2 ar
     3    1   29 1
     4    2    3 ar
     5    2   30 1
     6    3    4 ar
     7    3   31 1
     8    4    5 ar
     9    4    7 1
    10    5    6 ar
    11    5   32 1
    12    6   33 1
    13    7    8 1
    14    8   13 ar
    15    8    9 ar
    16    9   10 ar
    17    9   34 1
    18   10   11 ar
    19   10   35 1
    20   11   12 ar
    21   11   14 1
    22   12   13 ar
    23   12   36 1
    24   13   37 1
    25   14   23 ar
    26   14   15 ar
    27   15   16 ar
    28   15   28 1
    29   16   17 ar
    30   16   25 1
    31   17   22 ar
    32   17   18 ar
    33   18   19 ar
    34   18   38 1
    35   19   20 ar
    36   19   24 1
    37   20   21 ar
    38   20   39 1
    39   21   22 ar
    40   21   40 1
    41   22   23 ar
    42   25   26 2
    43   25   27 1
    44   28   41 1
@<TRIPOS>MOLECULE
CHEMBL104001
   42    46     0     0     0
SMALL
USER_CHARGES

@<TRIPOS>ATOM
      1 C1          0.0532    1.4847   -0.5026 C.ar      1 <0>        -0.1130
      2 C2          1.2482    2.1815   -0.5065 C.ar      1 <0>        -0.1265
      3 C3          2.4472    1.5008   -0.4487 C.ar      1 <0>        -0.0792
      4 C4          2.4526    0.1081   -0.3863 C.ar      1 <0>        -0.0448
      5 C5          1.2452   -0.5888   -0.3827 C.ar      1 <0>        -0.1015
      6 C6          0.0523    0.1027   -0.4409 C.ar      1 <0>        -0.1253
      7 C7          3.7374   -0.6290   -0.3244 C.ar      1 <0>         0.1711
      8 C8          3.7275   -2.0227   -0.2680 C.ar      1 <0>        -0.1747
      9 C9          4.9309   -2.6994   -0.1980 C.ar      1 <0>        -0.0304
     10 C10         6.1085   -1.9518   -0.1814 C.ar      1 <0>        -0.0897
     11 C11         6.0466   -0.5611   -0.2680 C.ar      1 <0>         0.1692
     12 N1          4.8791    0.0468   -0.3291 N.ar      1 <0>        -0.4773
     13 C12         7.3173    0.2453   -0.3322 C.3       1 <0>        -0.0679
     14 C13         8.3945   -0.3771    0.5500 C.3       1 <0>        -0.0706
     15 C14         8.5528   -1.8410    0.2423 C.ar      1 <0>        -0.1292
     16 C15         7.4308   -2.6188   -0.0925 C.ar      1 <0>         0.2135
     17 N2          7.5293   -3.9113   -0.3323 N.ar      1 <0>        -0.4863
     18 C16         8.6911   -4.5630   -0.2933 C.ar      1 <0>         0.1220
     19 C17         8.7570   -5.9461   -0.5502 C.ar      1 <0>        -0.0703
     20 C18         9.9581   -6.5833   -0.5133 C.ar      1 <0>        -0.1347
     21 C19        11.1335   -5.8889   -0.2222 C.ar      1 <0>         0.0826
     22 C20        11.1062   -4.5480    0.0370 C.ar      1 <0>        -0.1024
     23 C21         9.8876   -3.8643    0.0088 C.ar      1 <0>        -0.0674
     24 C22         9.8075   -2.4300    0.2930 C.ar      1 <0>        -0.0328
     25 C23        11.0128   -1.6432    0.6195 C.2       1 <0>         0.5317
     26 O1         11.3560   -1.5056    1.7851 O.co2     1 <0>        -0.6678
     27 O2         11.6683   -1.1289   -0.2757 O.co2     1 <0>        -0.6681
     28 F1         12.3112   -6.5504   -0.1962 F         1 <0>        -0.1408
     29 H1         -0.8829    2.0218   -0.5435 H         1 <0>         0.1216
     30 H2          1.2428    3.2604   -0.5553 H         1 <0>         0.1245
     31 H3          3.3795    2.0459   -0.4522 H         1 <0>         0.1365
     32 H4          1.2433   -1.6677   -0.3348 H         1 <0>         0.1270
     33 H5         -0.8837   -0.4361   -0.4378 H         1 <0>         0.1243
     34 H6          2.7936   -2.5650   -0.2793 H         1 <0>         0.1389
     35 H7          4.9586   -3.7783   -0.1569 H         1 <0>         0.1479
     36 H8          7.6710    0.2769   -1.3628 H         1 <0>         0.0910
     37 H9          7.1160    1.2608    0.0090 H         1 <0>         0.0954
     38 H10         9.3421    0.1317    0.3727 H         1 <0>         0.0978
     39 H11         8.1143   -0.2584    1.5967 H         1 <0>         0.0809
     40 H12         7.8570   -6.4989   -0.7754 H         1 <0>         0.1416
     41 H13        10.0031   -7.6439   -0.7120 H         1 <0>         0.1384
     42 H14        12.0207   -4.0194    0.2623 H         1 <0>         0.1448
@<TRIPOS>BOND
     1    1    6 ar
     2    1    2 ar
     3    1   29 1
     4    2    3 ar
     5    2   30 1
     6    3    4 ar
     7    3   31 1
     8    4    5 ar
     9    4    7 1
    10    5    6 ar
    11    5   32 1
    12    6   33 1
    13    7   12 ar
    14    7    8 ar
    15    8    9 ar
    16    8   34 1
    17    9   10 ar
    18    9   35 1
    19   10   16 1
    20   10   11 ar
    21   11   12 ar
    22   11   13 1
    23   13   14 1
    24   13   36 1
    25   13   37 1
    26   14   15 1
    27   14   38 1
    28   14   39 1
    29   15   24 ar
    30   15   16 ar
    31   16   17 ar
    32   17   18 ar
    33   18   23 ar
    34   18   19 ar
    35   19   20 ar
    36   19   40 1
    37   20   21 ar
    38   20   41 1
    39   21   22 ar
    40   21   28 1
    41   22   23 ar
    42   22   42 1
    43   23   24 ar
    44   24   25 1
    45   25   26 2
    46   25   27 1
@<TRIPOS>MOLECULE
CHEMBL143628
   50    53     0     0     0
SMALL
USER_CHARGES

@<TRIPOS>ATOM
      1 C1          1.0969    0.0464   -2.3018 C.ar      1 <0>        -0.1097
      2 C2          2.1278    0.8972   -1.9490 C.ar      1 <0>        -0.1215
      3 C3          3.3304    0.3793   -1.5060 C.ar      1 <0>        -0.0990
      4 C4          3.5021   -0.9893   -1.4154 C.ar      1 <0>        -0.1134
      5 C5          2.4710   -1.8401   -1.7673 C.ar      1 <0>        -0.0991
      6 C6          1.2688   -1.3222   -2.2116 C.ar      1 <0>        -0.1216
      7 C7          4.8136   -1.5540   -0.9335 C.3       1 <0>         0.1615
      8 N1          4.7728   -1.7093    0.5227 N.am      1 <0>        -0.7116
      9 C8          5.8428   -2.2008    1.1783 C.2       1 <0>         0.6068
     10 O1          6.8420   -2.5153    0.5612 O.2       1 <0>        -0.5239
     11 C9          5.8016   -2.3575    2.6465 C.2       1 <0>        -0.0135
     12 C10         6.8405   -2.8495    3.4614 C.2       1 <0>        -0.1142
     13 C11         6.3505   -2.8122    4.7413 C.2       1 <0>        -0.0363
     14 N2          5.0760   -2.3161    4.6600 N.pl3     1 <0>        -0.1953
     15 N3          4.7866   -2.0566    3.4356 N.2       1 <0>        -0.2215
     16 C12         4.2194   -2.1165    5.7488 C.ar      1 <0>         0.1138
     17 C13         4.6825   -1.4735    6.8897 C.ar      1 <0>        -0.0490
     18 C14         3.8352   -1.2775    7.9622 C.ar      1 <0>        -0.0977
     19 C15         2.5255   -1.7210    7.9013 C.ar      1 <0>        -0.0159
     20 C16         2.0615   -2.3620    6.7657 C.ar      1 <0>        -0.1032
     21 C17         2.9031   -2.5559    5.6883 C.ar      1 <0>        -0.0766
     22 Cl1         1.4631   -1.4734    9.2517 Cl        1 <0>        -0.0541
     23 C18         7.0559   -3.2252    5.9641 C.2       1 <0>         0.5907
     24 O2          6.4641   -3.2568    7.0264 O.2       1 <0>        -0.5027
     25 N4          8.3580   -3.5684    5.9077 N.am      1 <0>        -0.6545
     26 C19         8.9937   -4.0883    7.0395 C.ar      1 <0>         0.1389
     27 C20         8.6244   -3.6545    8.3062 C.ar      1 <0>        -0.1203
     28 C21         9.2539   -4.1703    9.4219 C.ar      1 <0>        -0.1021
     29 C22        10.2510   -5.1178    9.2790 C.ar      1 <0>        -0.1299
     30 C23        10.6211   -5.5519    8.0193 C.ar      1 <0>        -0.1009
     31 C24         9.9919   -5.0440    6.8997 C.ar      1 <0>        -0.1401
     32 H1          0.1558    0.4511   -2.6436 H         1 <0>         0.1242
     33 H2          1.9936    1.9665   -2.0198 H         1 <0>         0.1251
     34 H3          4.1361    1.0440   -1.2311 H         1 <0>         0.1246
     35 H4          2.6053   -2.9094   -1.6969 H         1 <0>         0.1245
     36 H5          0.4633   -1.9869   -2.4869 H         1 <0>         0.1250
     37 H6          4.9836   -2.5253   -1.3978 H         1 <0>         0.0816
     38 H7          5.6226   -0.8754   -1.2039 H         1 <0>         0.0816
     39 H8          3.9755   -1.4584    1.0150 H         1 <0>         0.4094
     40 H9          7.8167   -3.1857    3.1445 H         1 <0>         0.1786
     41 H10         5.7044   -1.1276    6.9379 H         1 <0>         0.1381
     42 H11         4.1948   -0.7779    8.8497 H         1 <0>         0.1467
     43 H12         1.0391   -2.7071    6.7207 H         1 <0>         0.1473
     44 H13         2.5394   -3.0525    4.8008 H         1 <0>         0.1433
     45 H14         8.8542   -3.4548    5.0819 H         1 <0>         0.4159
     46 H15         7.8460   -2.9143    8.4184 H         1 <0>         0.1421
     47 H16         8.9674   -3.8331   10.4071 H         1 <0>         0.1270
     48 H17        10.7419   -5.5193   10.1532 H         1 <0>         0.1248
     49 H18        11.4004   -6.2917    7.9111 H         1 <0>         0.1284
     50 H19        10.2784   -5.3867    5.9164 H         1 <0>         0.1278
@<TRIPOS>BOND
     1    1    6 ar
     2    1    2 ar
     3    1   32 1
     4    2    3 ar
     5    2   33 1
     6    3    4 ar
     7    3   34 1
     8    4    5 ar
     9    4    7 1
    10    5    6 ar
    11    5   35 1
    12    6   36 1
    13    7    8 1
    14    7   37 1
    15    7   38 1
    16    8    9 am
    17    8   39 1
    18    9   10 2
    19    9   11 1
    20   11   15 2
    21   11   12 1
    22   12   13 2
    23   12   40 1
    24   13   14 1
    25   13   23 1
    26   14   15 1
    27   14   16 1
    28   16   21 ar
    29   16   17 ar
    30   17   18 ar
    31   17   41 1
    32   18   19 ar
    33   18   42 1
    34   19   20 ar
    35   19   22 1
    36   20   21 ar
    37   20   43 1
    38   21   44 1
    39   23   24 2
    40   23   25 am
    41   25   26 1
    42   25   45 1
    43   26   31 ar
    44   26   27 ar
    45   27   28 ar
    46   27   46 1
    47   28   29 ar
    48   28   47 1
    49   29   30 ar
    50   29   48 1
    51   30   31 ar
    52   30   49 1
    53   31   50 1
@<TRIPOS>MOLECULE
CHEMBL118395
   29    30     0     0     0
SMALL
USER_CHARGES

@<TRIPOS>ATOM
      1 C1          1.2931    1.4470   -0.3856 C.3       1 <0>        -0.0839
      2 C2          1.1638   -0.0541   -0.3523 C.2       1 <0>         0.1576
      3 C3          0.4411   -0.8446   -1.2755 C.2       1 <0>        -0.2395
      4 C4          0.5849   -2.1707   -0.8762 C.2       1 <0>         0.4158
      5 N1          1.3561   -2.1704    0.2317 N.pl3     1 <0>        -0.4835
      6 H1          1.6269   -2.9546    0.7342 H         1 <0>         0.4463
      7 N2          1.7035   -0.8483    0.5293 N.2       1 <0>        -0.2833
      8 N3          0.0398   -3.2789   -1.4969 N.pl3     1 <0>        -0.6463
      9 C5          0.1659   -4.5429   -0.9092 C.ar      1 <0>         0.1401
     10 C6          0.1694   -4.6689    0.4739 C.ar      1 <0>        -0.1415
     11 C7          0.2934   -5.9164    1.0528 C.ar      1 <0>        -0.0816
     12 C8          0.4149   -7.0435    0.2533 C.ar      1 <0>         0.0878
     13 C9          0.4119   -6.9186   -1.1282 C.ar      1 <0>        -0.1518
     14 C10         0.2818   -5.6725   -1.7089 C.ar      1 <0>        -0.1022
     15 O1          0.5374   -8.2716    0.8242 O.3       1 <0>        -0.3079
     16 C11         0.6583   -9.3885   -0.0589 C.3       1 <0>         0.6040
     17 F1          1.7958   -9.2302   -0.8578 F         1 <0>        -0.1639
     18 F2          0.7743  -10.5646    0.6897 F         1 <0>        -0.1277
     19 F3         -0.4767   -9.4641   -0.8734 F         1 <0>        -0.1638
     20 C12        -0.2984   -0.3711   -2.4067 C.1       1 <0>         0.2900
     21 N4         -0.8850    0.0046   -3.3040 N.1       1 <0>        -0.4331
     22 H2          2.1620    1.7236   -0.9828 H         1 <0>         0.0883
     23 H3          0.3956    1.8792   -0.8281 H         1 <0>         0.0814
     24 H4          1.4152    1.8238    0.6298 H         1 <0>         0.0857
     25 H5         -0.4301   -3.1805   -2.3397 H         1 <0>         0.4330
     26 H6          0.0756   -3.7914    1.0965 H         1 <0>         0.1426
     27 H7          0.2962   -6.0146    2.1283 H         1 <0>         0.1504
     28 H8          0.5069   -7.7966   -1.7499 H         1 <0>         0.1431
     29 H9          0.2747   -5.5758   -2.7846 H         1 <0>         0.1438
@<TRIPOS>BOND
     1    1    2 1
     2    1   22 1
     3    1   23 1
     4    1   24 1
     5    2    7 2
     6    2    3 1
     7    3    4 2
     8    3   20 1
     9    4    5 1
    10    4    8 1
    11    5    6 1
    12    5    7 1
    13    8    9 1
    14    8   25 1
    15    9   14 ar
    16    9   10 ar
    17   10   11 ar
    18   10   26 1
    19   11   12 ar
    20   11   27 1
    21   12   13 ar
    22   12   15 1
    23   13   14 ar
    24   13   28 1
    25   14   29 1
    26   15   16 1
    27   16   17 1
    28   16   18 1
    29   16   19 1
    30   20   21 3
@<TRIPOS>MOLECULE
CHEMBL118395__1
   29    30     0     0     0
SMALL
USER_CHARGES

@<TRIPOS>ATOM
      1 C1         -1.1330    1.3852    0.1202 C.3       1 <0>        -0.1084
      2 C2         -0.9880   -0.1147    0.1405 C.2       1 <0>         0.1856
      3 C3         -0.3467   -0.8594    1.1102 C.2       1 <0>        -0.2183
      4 C4         -0.4524   -2.2214    0.7284 C.2       1 <0>         0.3775
      5 N1         -1.1168   -2.2723   -0.3993 N.2       1 <0>        -0.3262
      6 H1         -1.9633   -0.7275   -1.5738 H         1 <0>         0.4513
      7 N2         -1.4641   -0.9709   -0.7786 N.pl3     1 <0>        -0.4460
      8 N3          0.0607   -3.3137    1.4300 N.pl3     1 <0>        -0.6421
      9 C5         -0.0174   -4.5981    0.8796 C.ar      1 <0>         0.1564
     10 C6         -0.0165   -4.7644   -0.4993 C.ar      1 <0>        -0.1035
     11 C7         -0.0936   -6.0322   -1.0414 C.ar      1 <0>        -0.0914
     12 C8         -0.1724   -7.1392   -0.2093 C.ar      1 <0>         0.0771
     13 C9         -0.1733   -6.9741    1.1679 C.ar      1 <0>        -0.1596
     14 C10        -0.0900   -5.7075    1.7120 C.ar      1 <0>        -0.1154
     15 O1         -0.2492   -8.3872   -0.7441 O.3       1 <0>        -0.3098
     16 C11        -0.3278   -9.4816    0.1713 C.3       1 <0>         0.6035
     17 F1         -1.4700   -9.3428    0.9672 F         1 <0>        -0.1654
     18 F2         -0.4001  -10.6825   -0.5426 F         1 <0>        -0.1311
     19 F3          0.8097   -9.4910    0.9857 F         1 <0>        -0.1654
     20 C12         0.3033   -0.3521    2.2810 C.1       1 <0>         0.2856
     21 N4          0.8190    0.0503    3.2097 N.1       1 <0>        -0.4254
     22 H2         -0.2867    1.8250   -0.4075 H         1 <0>         0.0974
     23 H3         -2.0584    1.6538   -0.3894 H         1 <0>         0.0875
     24 H4         -1.1590    1.7616    1.1428 H         1 <0>         0.0931
     25 H5          0.4713   -3.1826    2.2989 H         1 <0>         0.4247
     26 H6          0.0441   -3.9026   -1.1473 H         1 <0>         0.1518
     27 H7         -0.0929   -6.1617   -2.1136 H         1 <0>         0.1426
     28 H8         -0.2347   -7.8366    1.8150 H         1 <0>         0.1372
     29 H9         -0.0860   -5.5794    2.7843 H         1 <0>         0.1367
@<TRIPOS>BOND
     1    1    2 1
     2    1   22 1
     3    1   23 1
     4    1   24 1
     5    2    3 2
     6    2    7 1
     7    3   20 1
     8    3    4 1
     9    4    8 1
    10    4    5 2
    11    5    7 1
    12    6    7 1
    13    8    9 1
    14    8   25 1
    15    9   14 ar
    16    9   10 ar
    17   10   11 ar
    18   10   26 1
    19   11   12 ar
    20   11   27 1
    21   12   13 ar
    22   12   15 1
    23   13   14 ar
    24   13   28 1
    25   14   29 1
    26   15   16 1
    27   16   17 1
    28   16   18 1
    29   16   19 1
    30   20   21 3
@<TRIPOS>MOLECULE
CHEMBL199361
   39    41     0     0     0
SMALL
USER_CHARGES

@<TRIPOS>ATOM
      1 C1         -1.6297   -1.0372   -3.5155 C.3       1 <0>         0.0261
      2 O1         -1.0746   -1.6480   -2.3490 O.3       1 <0>        -0.3105
      3 C2         -1.7494   -1.4763   -1.1822 C.ar      1 <0>         0.1559
      4 C3         -2.9234   -0.7412   -1.1599 C.ar      1 <0>        -0.2104
      5 C4         -3.6093   -0.5675    0.0275 C.ar      1 <0>        -0.0665
      6 C5         -3.1289   -1.1250    1.1993 C.ar      1 <0>        -0.1550
      7 C6         -1.9603   -1.8593    1.1917 C.ar      1 <0>        -0.0486
      8 C7         -1.2644   -2.0457   -0.0008 C.ar      1 <0>        -0.0934
      9 C8         -0.0119   -2.8391   -0.0160 C.ar      1 <0>        -0.0500
     10 C9          1.2157   -2.2122    0.2038 C.ar      1 <0>         0.1092
     11 C10         2.3820   -2.9546    0.1896 C.ar      1 <0>         0.0979
     12 C11         2.3329   -4.3248   -0.0439 C.ar      1 <0>         0.1447
     13 C12         1.1111   -4.9520   -0.2632 C.ar      1 <0>         0.0998
     14 C13        -0.0589   -4.2154   -0.2444 C.ar      1 <0>         0.1094
     15 F1         -1.2459   -4.8263   -0.4520 F         1 <0>        -0.1076
     16 F2          1.0669   -6.2831   -0.4902 F         1 <0>        -0.1038
     17 N1          3.5153   -5.0738   -0.0586 N.am      1 <0>        -0.6967
     18 C14         3.9830   -5.6172    1.0826 C.2       1 <0>         0.5599
     19 O2          3.3338   -5.5323    2.1071 O.2       1 <0>        -0.4287
     20 C15         5.2841   -6.3157    1.0887 C.2       1 <0>        -0.1823
     21 C16         6.0673   -6.4369   -0.0473 C.2       1 <0>        -0.1442
     22 C17         7.2487   -7.0915    0.0357 C.2       1 <0>        -0.2916
     23 S1          7.3554   -7.5704    1.6416 S.3       1 <0>         0.2005
     24 C18         5.8189   -6.8993    2.2465 C.2       1 <0>        -0.1070
     25 C19         5.2596   -6.9468    3.5995 C.2       1 <0>         0.5375
     26 O3          4.1762   -6.4261    3.8327 O.co2     1 <0>        -0.6068
     27 O4          5.8755   -7.5071    4.4972 O.co2     1 <0>        -0.6801
     28 F3          3.5705   -2.3484    0.4023 F         1 <0>        -0.1042
     29 F4          1.2643   -0.8811    0.4299 F         1 <0>        -0.1077
     30 H1         -0.9947   -1.2515   -4.3751 H         1 <0>         0.1020
     31 H2         -2.6287   -1.4353   -3.6936 H         1 <0>         0.0572
     32 H3         -1.6894    0.0411   -3.3676 H         1 <0>         0.0572
     33 H4         -3.3030   -0.3031   -2.0712 H         1 <0>         0.1328
     34 H5         -4.5242    0.0062    0.0407 H         1 <0>         0.1285
     35 H6         -3.6702   -0.9847    2.1233 H         1 <0>         0.1314
     36 H7         -1.5879   -2.2923    2.1083 H         1 <0>         0.1372
     37 H8          3.9980   -5.2017   -0.8902 H         1 <0>         0.4093
     38 H9          5.7396   -6.0152   -0.9860 H         1 <0>         0.1215
     39 H10         7.9634   -7.2671   -0.7548 H         1 <0>         0.1773
@<TRIPOS>BOND
     1    1    2 1
     2    1   30 1
     3    1   31 1
     4    1   32 1
     5    2    3 1
     6    3    8 ar
     7    3    4 ar
     8    4    5 ar
     9    4   33 1
    10    5    6 ar
    11    5   34 1
    12    6    7 ar
    13    6   35 1
    14    7    8 ar
    15    7   36 1
    16    8    9 1
    17    9   14 ar
    18    9   10 ar
    19   10   11 ar
    20   10   29 1
    21   11   12 ar
    22   11   28 1
    23   12   13 ar
    24   12   17 1
    25   13   14 ar
    26   13   16 1
    27   14   15 1
    28   17   18 am
    29   17   37 1
    30   18   19 2
    31   18   20 1
    32   20   24 2
    33   20   21 1
    34   21   22 2
    35   21   38 1
    36   22   23 1
    37   22   39 1
    38   23   24 1
    39   24   25 1
    40   25   26 2
    41   25   27 1
@<TRIPOS>MOLECULE
CHEMBL218700
   30    32     0     0     0
SMALL
USER_CHARGES

@<TRIPOS>ATOM
      1 C1         -0.1515    1.4939   -0.1488 C.ar      1 <0>        -0.0673
      2 C2          0.9989    2.2495   -0.2417 C.ar      1 <0>        -0.1167
      3 C3          2.2309    1.6280   -0.3575 C.ar      1 <0>        -0.0282
      4 C4          2.3154    0.2460   -0.3802 C.ar      1 <0>        -0.1131
      5 C5          1.1711   -0.5191   -0.2880 C.ar      1 <0>        -0.0738
      6 C6         -0.0722    0.1018   -0.1712 C.ar      1 <0>        -0.0301
      7 C7         -1.3045   -0.7149   -0.0713 C.ar      1 <0>         0.1943
      8 C8         -1.3772   -1.9309   -0.7853 C.ar      1 <0>         0.0536
      9 C9         -2.5360   -2.7051   -0.6947 C.ar      1 <0>        -0.0510
     10 C10        -3.6189   -2.1949    0.1507 C.ar      1 <0>        -0.0792
     11 C11        -4.8164   -2.8993    0.3047 C.ar      1 <0>        -0.0303
     12 C12        -5.8007   -2.3904    1.1021 C.ar      1 <0>        -0.1010
     13 C13        -5.6255   -1.1766    1.7639 C.ar      1 <0>        -0.0823
     14 C14        -4.4715   -0.4666    1.6347 C.ar      1 <0>        -0.0895
     15 C15        -3.4348   -0.9606    0.8214 C.ar      1 <0>         0.1356
     16 N1         -2.2911   -0.2862    0.6829 N.ar      1 <0>        -0.4738
     17 Br1        -7.4207   -3.3433    1.3105 Br        1 <0>        -0.0537
     18 C16        -2.6644   -3.9791   -1.4178 C.2       1 <0>         0.5337
     19 O1         -2.3121   -5.0230   -0.8854 O.co2     1 <0>        -0.6712
     20 O2         -3.1234   -3.9953   -2.5519 O.co2     1 <0>        -0.6615
     21 O3         -0.3368   -2.3408   -1.5487 O.3       1 <0>        -0.4707
     22 Cl1         3.6747    2.5847   -0.4751 Cl        1 <0>        -0.0762
     23 H1         -1.1115    1.9796   -0.0544 H         1 <0>         0.1392
     24 H2          0.9386    3.3276   -0.2244 H         1 <0>         0.1351
     25 H3          3.2787   -0.2337   -0.4707 H         1 <0>         0.1369
     26 H4          1.2380   -1.5968   -0.3066 H         1 <0>         0.1351
     27 H5         -4.9622   -3.8405   -0.2045 H         1 <0>         0.1442
     28 H6         -6.4183   -0.7930    2.3890 H         1 <0>         0.1365
     29 H7         -4.3520    0.4727    2.1542 H         1 <0>         0.1419
     30 H8          0.3059   -2.8877   -1.0766 H         1 <0>         0.3833
@<TRIPOS>BOND
     1    1    6 ar
     2    1    2 ar
     3    1   23 1
     4    2    3 ar
     5    2   24 1
     6    3    4 ar
     7    3   22 1
     8    4    5 ar
     9    4   25 1
    10    5    6 ar
    11    5   26 1
    12    6    7 1
    13    7   16 ar
    14    7    8 ar
    15    8    9 ar
    16    8   21 1
    17    9   10 ar
    18    9   18 1
    19   10   15 ar
    20   10   11 ar
    21   11   12 ar
    22   11   27 1
    23   12   13 ar
    24   12   17 1
    25   13   14 ar
    26   13   28 1
    27   14   15 ar
    28   14   29 1
    29   15   16 ar
    30   18   19 2
    31   18   20 1
    32   21   30 1
@<TRIPOS>MOLECULE
CHEMBL143345
   67    70     0     0     0
SMALL
USER_CHARGES

@<TRIPOS>ATOM
      1 C1          0.1533    0.7384    0.2672 C.3       1 <0>        -0.1514
      2 C2         -0.3420   -0.5832    0.8578 C.3       1 <0>        -0.1088
      3 C3         -0.0307   -0.6210    2.3554 C.3       1 <0>        -0.1461
      4 C4         -1.8529   -0.7012    0.6478 C.3       1 <0>         0.1218
      5 N1         -2.1416   -0.7851   -0.7860 N.am      1 <0>        -0.7153
      6 C5         -3.4156   -0.8955   -1.2115 C.2       1 <0>         0.6061
      7 O1         -4.3253   -0.9255   -0.4056 O.2       1 <0>        -0.5263
      8 C6         -3.7067   -0.9802   -2.6571 C.2       1 <0>        -0.0191
      9 C7         -4.9821   -1.0921   -3.2449 C.2       1 <0>        -0.1168
     10 C8         -4.7592   -1.1373   -4.5972 C.2       1 <0>        -0.0389
     11 N2         -3.4033   -1.0540   -4.7751 N.pl3     1 <0>        -0.1852
     12 N3         -2.8192   -0.9590   -3.6350 N.2       1 <0>        -0.2226
     13 C9         -2.7521   -1.0660   -6.0144 C.ar      1 <0>         0.0676
     14 C10        -3.1308   -0.1712   -7.0072 C.ar      1 <0>        -0.0237
     15 C11        -2.4884   -0.1837   -8.2287 C.ar      1 <0>        -0.1385
     16 C12        -1.4643   -1.0900   -8.4653 C.ar      1 <0>         0.1539
     17 C13        -1.0857   -1.9845   -7.4741 C.ar      1 <0>        -0.2026
     18 C14        -1.7231   -1.9691   -6.2499 C.ar      1 <0>        -0.0447
     19 O2         -0.8321   -1.1017   -9.6684 O.3       1 <0>        -0.3102
     20 C15         0.2126   -2.0609   -9.8429 C.3       1 <0>         0.0232
     21 C16        -5.7777   -1.2532   -5.6516 C.2       1 <0>         0.5916
     22 O3         -5.4392   -1.3944   -6.8114 O.2       1 <0>        -0.4962
     23 N4         -7.0863   -1.2028   -5.3330 N.am      1 <0>        -0.6549
     24 C17        -8.0514   -1.4018   -6.3181 C.ar      1 <0>         0.1712
     25 C18        -7.7891   -1.0278   -7.6326 C.ar      1 <0>        -0.1332
     26 C19        -8.7404   -1.2231   -8.6082 C.ar      1 <0>        -0.0380
     27 C20        -9.9705   -1.7980   -8.2774 C.ar      1 <0>        -0.1478
     28 C21       -10.2306   -2.1729   -6.9564 C.ar      1 <0>        -0.0971
     29 C22        -9.2732   -1.9793   -5.9864 C.ar      1 <0>        -0.1516
     30 C23       -10.9929   -2.0084   -9.3208 C.2       1 <0>         0.5760
     31 O4        -10.8985   -1.4350  -10.3888 O.2       1 <0>        -0.5335
     32 N5        -12.0312   -2.8360   -9.0897 N.am      1 <0>        -0.6177
     33 C24       -12.3733   -3.4403   -7.7939 C.3       1 <0>         0.0892
     34 C25       -13.6156   -4.3285   -8.0162 C.3       1 <0>        -0.1361
     35 C26       -13.5658   -4.6208   -9.5392 C.3       1 <0>        -0.1346
     36 C27       -13.0157   -3.2803  -10.0932 C.3       1 <0>         0.1053
     37 H1          1.2298    0.8224    0.4168 H         1 <0>         0.0597
     38 H2         -0.0684    0.7653   -0.7997 H         1 <0>         0.0548
     39 H3         -0.3484    1.5690    0.7636 H         1 <0>         0.0587
     40 H4          0.1598   -1.4138    0.3614 H         1 <0>         0.0776
     41 H5         -0.5325    0.2096    2.8518 H         1 <0>         0.0595
     42 H6         -0.3836   -1.5625    2.7762 H         1 <0>         0.0590
     43 H7          1.0457   -0.5370    2.5050 H         1 <0>         0.0617
     44 H8         -2.2199   -1.5988    1.1455 H         1 <0>         0.0723
     45 H9         -2.3475    0.1749    1.0674 H         1 <0>         0.0728
     46 H10        -1.4158   -0.7613   -1.4290 H         1 <0>         0.4075
     47 H11        -5.9345   -1.1340   -2.7375 H         1 <0>         0.1767
     48 H12        -3.9280    0.5339   -6.8233 H         1 <0>         0.1340
     49 H13        -2.7829    0.5117   -9.0007 H         1 <0>         0.1448
     50 H14        -0.2889   -2.6897   -7.6591 H         1 <0>         0.1412
     51 H15        -1.4251   -2.6621   -5.4770 H         1 <0>         0.1354
     52 H16         0.6319   -1.9632  -10.8443 H         1 <0>         0.1051
     53 H17         0.9939   -1.8858   -9.1033 H         1 <0>         0.0594
     54 H18        -0.1910   -3.0652   -9.7144 H         1 <0>         0.0594
     55 H19        -7.3563   -1.0280   -4.4179 H         1 <0>         0.4177
     56 H20        -6.8382   -0.5836   -7.8876 H         1 <0>         0.1531
     57 H21        -8.5364   -0.9320   -9.6281 H         1 <0>         0.1394
     58 H22       -11.1804   -2.6171   -6.6976 H         1 <0>         0.1591
     59 H23        -9.4720   -2.2726   -4.9662 H         1 <0>         0.1348
     60 H24       -11.5419   -4.0484   -7.4374 H         1 <0>         0.0794
     61 H25       -12.6013   -2.6588   -7.0690 H         1 <0>         0.0795
     62 H26       -13.5367   -5.2525   -7.4434 H         1 <0>         0.0861
     63 H27       -14.5267   -3.7892   -7.7567 H         1 <0>         0.0800
     64 H28       -12.8868   -5.4453   -9.7567 H         1 <0>         0.0780
     65 H29       -14.5625   -4.8238   -9.9309 H         1 <0>         0.0874
     66 H30       -13.8179   -2.5484  -10.1875 H         1 <0>         0.0710
     67 H31       -12.5305   -3.4389  -11.0563 H         1 <0>         0.0798
@<TRIPOS>BOND
     1    1    2 1
     2    1   37 1
     3    1   38 1
     4    1   39 1
     5    2    3 1
     6    2    4 1
     7    2   40 1
     8    3   41 1
     9    3   42 1
    10    3   43 1
    11    4    5 1
    12    4   44 1
    13    4   45 1
    14    5    6 am
    15    5   46 1
    16    6    7 2
    17    6    8 1
    18    8   12 2
    19    8    9 1
    20    9   10 2
    21    9   47 1
    22   10   11 1
    23   10   21 1
    24   11   12 1
    25   11   13 1
    26   13   18 ar
    27   13   14 ar
    28   14   15 ar
    29   14   48 1
    30   15   16 ar
    31   15   49 1
    32   16   17 ar
    33   16   19 1
    34   17   18 ar
    35   17   50 1
    36   18   51 1
    37   19   20 1
    38   20   52 1
    39   20   53 1
    40   20   54 1
    41   21   22 2
    42   21   23 am
    43   23   24 1
    44   23   55 1
    45   24   29 ar
    46   24   25 ar
    47   25   26 ar
    48   25   56 1
    49   26   27 ar
    50   26   57 1
    51   27   28 ar
    52   27   30 1
    53   28   29 ar
    54   28   58 1
    55   29   59 1
    56   30   31 2
    57   30   32 am
    58   32   36 1
    59   32   33 1
    60   33   34 1
    61   33   60 1
    62   33   61 1
    63   34   35 1
    64   34   62 1
    65   34   63 1
    66   35   36 1
    67   35   64 1
    68   35   65 1
    69   36   66 1
    70   36   67 1
@<TRIPOS>MOLECULE
CHEMBL218085
   41    44     0     0     0
SMALL
USER_CHARGES

@<TRIPOS>ATOM
      1 C1          4.2581    0.1974    4.3790 C.ar      1 <0>        -0.1273
      2 C2          3.8944   -1.0797    3.9923 C.ar      1 <0>        -0.1020
      3 C3          3.7994   -1.3961    2.6516 C.ar      1 <0>        -0.1220
      4 C4          4.0697   -0.4295    1.6904 C.ar      1 <0>        -0.0949
      5 C5          4.4349    0.8527    2.0827 C.ar      1 <0>        -0.1023
      6 C6          4.5278    1.1619    3.4252 C.ar      1 <0>        -0.1050
      7 S1          3.9503   -0.8288   -0.0216 S.3       1 <0>        -0.0132
      8 C7          3.6328   -2.5619   -0.0339 C.ar      1 <0>        -0.1403
      9 C8          2.3239   -3.0278   -0.1136 C.ar      1 <0>        -0.0694
     10 C9          2.0733   -4.3821   -0.1229 C.ar      1 <0>        -0.0900
     11 C10         3.1333   -5.2875   -0.0529 C.ar      1 <0>         0.0025
     12 C11         4.4454   -4.8178    0.0264 C.ar      1 <0>        -0.0964
     13 C12         4.6915   -3.4626    0.0302 C.ar      1 <0>        -0.0666
     14 C13         2.8665   -6.7437   -0.0623 C.ar      1 <0>         0.1795
     15 C14         3.7843   -7.6019   -0.7070 C.ar      1 <0>         0.0621
     16 C15         3.5381   -8.9764   -0.7187 C.ar      1 <0>        -0.0595
     17 C16         2.3215   -9.4458   -0.0489 C.ar      1 <0>        -0.0539
     18 C17         1.9909  -10.8027   -0.0078 C.ar      1 <0>        -0.1056
     19 C18         0.8478  -11.2003    0.6269 C.ar      1 <0>         0.0896
     20 C19         0.0080  -10.2665    1.2338 C.ar      1 <0>        -0.1353
     21 C20         0.3029   -8.9380    1.2101 C.ar      1 <0>        -0.0655
     22 C21         1.4721   -8.4931    0.5659 C.ar      1 <0>         0.1121
     23 N1          1.7859   -7.1956    0.5343 N.ar      1 <0>        -0.4648
     24 F1          0.5274  -12.5122    0.6667 F         1 <0>        -0.1389
     25 C22         4.4605   -9.9138   -1.3757 C.2       1 <0>         0.5339
     26 O1          5.3298  -10.4756   -0.7229 O.co2     1 <0>        -0.6723
     27 O2          4.3590  -10.1323   -2.5755 O.co2     1 <0>        -0.6617
     28 O3          4.8889   -7.0983   -1.3067 O.3       1 <0>        -0.4703
     29 H1          4.3273    0.4433    5.4284 H         1 <0>         0.1227
     30 H2          3.6848   -1.8305    4.7398 H         1 <0>         0.1241
     31 H3          3.5157   -2.3937    2.3502 H         1 <0>         0.1249
     32 H4          4.6460    1.6063    1.3385 H         1 <0>         0.1264
     33 H5          4.8112    2.1583    3.7309 H         1 <0>         0.1257
     34 H6          1.5040   -2.3269   -0.1677 H         1 <0>         0.1344
     35 H7          1.0573   -4.7433   -0.1840 H         1 <0>         0.1371
     36 H8          5.2672   -5.5165    0.0807 H         1 <0>         0.1328
     37 H9          5.7068   -3.0987    0.0871 H         1 <0>         0.1350
     38 H10         2.6347  -11.5331   -0.4751 H         1 <0>         0.1467
     39 H11        -0.8904  -10.6028    1.7299 H         1 <0>         0.1405
     40 H12        -0.3582   -8.2277    1.6842 H         1 <0>         0.1440
     41 H13         5.6594   -7.0386   -0.7254 H         1 <0>         0.3835
@<TRIPOS>BOND
     1    1    6 ar
     2    1    2 ar
     3    1   29 1
     4    2    3 ar
     5    2   30 1
     6    3    4 ar
     7    3   31 1
     8    4    5 ar
     9    4    7 1
    10    5    6 ar
    11    5   32 1
    12    6   33 1
    13    7    8 1
    14    8   13 ar
    15    8    9 ar
    16    9   10 ar
    17    9   34 1
    18   10   11 ar
    19   10   35 1
    20   11   12 ar
    21   11   14 1
    22   12   13 ar
    23   12   36 1
    24   13   37 1
    25   14   23 ar
    26   14   15 ar
    27   15   16 ar
    28   15   28 1
    29   16   17 ar
    30   16   25 1
    31   17   22 ar
    32   17   18 ar
    33   18   19 ar
    34   18   38 1
    35   19   20 ar
    36   19   24 1
    37   20   21 ar
    38   20   39 1
    39   21   22 ar
    40   21   40 1
    41   22   23 ar
    42   25   26 2
    43   25   27 1
    44   28   41 1
@<TRIPOS>MOLECULE
CHEMBL290674
   43    46     0     0     0
SMALL
USER_CHARGES

@<TRIPOS>ATOM
      1 C1         -0.1123    1.6342    0.0589 C.3       1 <0>        -0.1115
      2 C2         -0.1988    0.1300    0.0282 C.ar      1 <0>        -0.1293
      3 C3         -0.3905   -0.5370   -1.1755 C.ar      1 <0>        -0.0350
      4 C4         -0.4641   -1.9981   -1.1288 C.ar      1 <0>        -0.0671
      5 C5         -0.6545   -2.7574   -2.2871 C.ar      1 <0>        -0.1032
      6 C6         -0.7169   -4.1190   -2.1985 C.ar      1 <0>         0.0829
      7 C7         -0.5933   -4.7608   -0.9651 C.ar      1 <0>        -0.1353
      8 C8         -0.4074   -4.0508    0.1800 C.ar      1 <0>        -0.0694
      9 C9         -0.3374   -2.6454    0.1271 C.ar      1 <0>         0.1190
     10 N1         -0.1545   -1.9243    1.2332 N.ar      1 <0>        -0.4813
     11 C10        -0.0808   -0.6103    1.2139 C.ar      1 <0>         0.2028
     12 C11         0.1293    0.1133    2.4912 C.ar      1 <0>        -0.0219
     13 C12         0.8906    1.2812    2.5162 C.ar      1 <0>        -0.0992
     14 C13         1.0846    1.9528    3.7062 C.ar      1 <0>        -0.1097
     15 C14         0.5260    1.4710    4.8755 C.ar      1 <0>        -0.1149
     16 C15        -0.2329    0.3087    4.8596 C.ar      1 <0>         0.0715
     17 C16        -0.4381   -0.3687    3.6685 C.ar      1 <0>        -0.0912
     18 O1         -0.7793   -0.1617    6.0115 O.3       1 <0>        -0.2573
     19 C17        -0.1630   -1.2020    6.6316 C.ar      1 <0>         0.1239
     20 C18         0.9471   -1.7984    6.0508 C.ar      1 <0>        -0.1903
     21 C19         1.5717   -2.8558    6.6832 C.ar      1 <0>        -0.0809
     22 C20         1.0913   -3.3203    7.8937 C.ar      1 <0>        -0.1566
     23 C21        -0.0150   -2.7281    8.4744 C.ar      1 <0>        -0.0860
     24 C22        -0.6393   -1.6661    7.8494 C.ar      1 <0>        -0.1491
     25 F1         -0.9008   -4.8531   -3.3176 F         1 <0>        -0.1410
     26 C23        -0.5153    0.1979   -2.4494 C.2       1 <0>         0.5323
     27 O2          0.4691    0.3722   -3.1537 O.co2     1 <0>        -0.6691
     28 O3         -1.6031    0.6325   -2.8006 O.co2     1 <0>        -0.6688
     29 H1          0.9305    1.9399   -0.0252 H         1 <0>         0.0733
     30 H2         -0.6806    2.0479   -0.7741 H         1 <0>         0.0792
     31 H3         -0.5243    2.0027    0.9984 H         1 <0>         0.0714
     32 H4         -0.7519   -2.2703   -3.2461 H         1 <0>         0.1445
     33 H5         -0.6466   -5.8385   -0.9193 H         1 <0>         0.1383
     34 H6         -0.3137   -4.5629    1.1262 H         1 <0>         0.1414
     35 H7          1.3286    1.6601    1.6046 H         1 <0>         0.1461
     36 H8          1.6748    2.8571    3.7241 H         1 <0>         0.1356
     37 H9          0.6809    2.0003    5.8041 H         1 <0>         0.1309
     38 H10        -1.0323   -1.2704    3.6537 H         1 <0>         0.1368
     39 H11         1.3223   -1.4364    5.1049 H         1 <0>         0.1315
     40 H12         2.4358   -3.3204    6.2315 H         1 <0>         0.1250
     41 H13         1.5809   -4.1474    8.3863 H         1 <0>         0.1227
     42 H14        -0.3885   -3.0930    9.4198 H         1 <0>         0.1284
     43 H15        -1.5005   -1.2007    8.3057 H         1 <0>         0.1305
@<TRIPOS>BOND
     1    1    2 1
     2    1   29 1
     3    1   30 1
     4    1   31 1
     5    2   11 ar
     6    2    3 ar
     7    3    4 ar
     8    3   26 1
     9    4    9 ar
    10    4    5 ar
    11    5    6 ar
    12    5   32 1
    13    6    7 ar
    14    6   25 1
    15    7    8 ar
    16    7   33 1
    17    8    9 ar
    18    8   34 1
    19    9   10 ar
    20   10   11 ar
    21   11   12 1
    22   12   17 ar
    23   12   13 ar
    24   13   14 ar
    25   13   35 1
    26   14   15 ar
    27   14   36 1
    28   15   16 ar
    29   15   37 1
    30   16   17 ar
    31   16   18 1
    32   17   38 1
    33   18   19 1
    34   19   24 ar
    35   19   20 ar
    36   20   21 ar
    37   20   39 1
    38   21   22 ar
    39   21   40 1
    40   22   23 ar
    41   22   41 1
    42   23   24 ar
    43   23   42 1
    44   24   43 1
    45   26   27 2
    46   26   28 1
@<TRIPOS>MOLECULE
CHEMBL143237
   27    28     0     0     0
SMALL
USER_CHARGES

@<TRIPOS>ATOM
      1 C1          1.1303   -0.7106   -0.0269 C.ar      1 <0>        -0.0178
      2 C2          2.3506   -0.0580   -0.0304 C.ar      1 <0>        -0.2264
      3 C3          2.3743    1.3319   -0.0190 C.ar      1 <0>         0.4008
      4 N1          1.2468    2.0255   -0.0049 N.ar      1 <0>        -0.4506
      5 C4          0.0690    1.4318   -0.0011 C.ar      1 <0>         0.1723
      6 C5         -0.0294    0.0533   -0.0119 C.ar      1 <0>        -0.2031
      7 Br1        -1.7250   -0.7838   -0.0070 Br        1 <0>        -0.0583
      8 N2          3.5966    2.0014   -0.0220 N.pl3     1 <0>        -0.6507
      9 C6          3.6288    3.3595   -0.1183 C.2       1 <0>         0.5322
     10 O1          2.4813    4.0626   -0.1037 O.3       1 <0>        -0.5614
     11 C7          4.8535    4.0230   -0.2322 C.2       1 <0>        -0.4425
     12 C8          4.8869    5.4284   -0.3318 C.2       1 <0>         0.4449
     13 C9          6.2075    6.1439   -0.4546 C.3       1 <0>        -0.1983
     14 C10         6.2725    7.3509   -1.3926 C.3       1 <0>        -0.1607
     15 C11         6.3015    7.5575    0.1231 C.3       1 <0>        -0.1613
     16 O2          3.8510    6.0631   -0.3186 O.2       1 <0>        -0.5006
     17 C12         6.0745    3.2749   -0.2476 C.1       1 <0>         0.3004
     18 N3          7.0430    2.6815   -0.2599 N.1       1 <0>        -0.5437
     19 H1          1.0809   -1.7894   -0.0400 H         1 <0>         0.1394
     20 H2          3.2722   -0.6210   -0.0416 H         1 <0>         0.1380
     21 H3         -0.8298    2.0304    0.0105 H         1 <0>         0.1609
     22 H4          4.4243    1.5001    0.0445 H         1 <0>         0.4089
     23 H5          7.0929    5.5119   -0.3850 H         1 <0>         0.1024
     24 H6          7.2007    7.5131   -1.9405 H         1 <0>         0.0889
     25 H7          5.3600    7.6275   -1.9208 H         1 <0>         0.0980
     26 H8          5.4081    7.9700    0.5920 H         1 <0>         0.0996
     27 H9          7.2488    7.8557    0.5724 H         1 <0>         0.0887
@<TRIPOS>BOND
     1    1    6 ar
     2    1    2 ar
     3    1   19 1
     4    2    3 ar
     5    2   20 1
     6    3    4 ar
     7    3    8 1
     8    4    5 ar
     9    5    6 ar
    10    5   21 1
    11    6    7 1
    12    8    9 1
    13    8   22 1
    14    9   10 1
    15    9   11 2
    16   11   17 1
    17   11   12 1
    18   12   16 2
    19   12   13 1
    20   13   15 1
    21   13   14 1
    22   13   23 1
    23   14   15 1
    24   14   24 1
    25   14   25 1
    26   15   26 1
    27   15   27 1
    28   17   18 3
@<TRIPOS>MOLECULE
CHEMBL344613
   31    31     0     0     0
SMALL
USER_CHARGES

@<TRIPOS>ATOM
      1 C1         -0.0232    1.1702    0.2851 C.2       1 <0>        -0.2191
      2 C2          0.0809   -0.1188    0.0759 C.2       1 <0>        -0.1115
      3 C3         -1.1419   -0.9961    0.1543 C.3       1 <0>        -0.1407
      4 C4         -1.2867   -1.7719   -1.1295 C.2       1 <0>         0.4223
      5 C5         -2.3632   -2.6660   -1.2947 C.2       1 <0>        -0.4480
      6 C6         -3.3195   -2.8374   -0.2428 C.1       1 <0>         0.2980
      7 N1         -4.0782   -2.9734    0.5918 N.1       1 <0>        -0.5385
      8 C7         -2.4976   -3.3857   -2.4857 C.2       1 <0>         0.5448
      9 O1         -1.5987   -3.2245   -3.4745 O.3       1 <0>        -0.6138
     10 N2         -3.5372   -4.2491   -2.6453 N.pl3     1 <0>        -0.6790
     11 C8         -3.6079   -5.0552   -3.7858 C.ar      1 <0>         0.2158
     12 C9         -2.4536   -5.6239   -4.3088 C.ar      1 <0>        -0.1161
     13 C10        -2.5269   -6.4198   -5.4350 C.ar      1 <0>        -0.0523
     14 C11        -3.7478   -6.6508   -6.0420 C.ar      1 <0>        -0.2226
     15 C12        -4.8989   -6.0861   -5.5239 C.ar      1 <0>        -0.0520
     16 C13        -4.8332   -5.2935   -4.3948 C.ar      1 <0>        -0.1650
     17 C14        -3.8240   -7.5195   -7.2711 C.3       1 <0>         0.5126
     18 F1         -4.0253   -8.8504   -6.8898 F         1 <0>        -0.1822
     19 F2         -4.8891   -7.0983   -8.0745 F         1 <0>        -0.1820
     20 F3         -2.6283   -7.4161   -7.9900 F         1 <0>        -0.1799
     21 O2         -0.4753   -1.6265   -2.0221 O.2       1 <0>        -0.4957
     22 H1          0.8532    1.7989    0.2289 H         1 <0>         0.0920
     23 H2         -0.9861    1.6048    0.5095 H         1 <0>         0.0904
     24 H3          1.0431   -0.5528   -0.1529 H         1 <0>         0.1096
     25 H4         -1.0382   -1.6900    0.9885 H         1 <0>         0.0864
     26 H5         -2.0251   -0.3756    0.3055 H         1 <0>         0.0801
     27 H6         -1.4998   -5.4436   -3.8354 H         1 <0>         0.1471
     28 H7         -1.6298   -6.8621   -5.8423 H         1 <0>         0.1326
     29 H8         -5.8508   -6.2681   -6.0005 H         1 <0>         0.1315
     30 H9         -5.7331   -4.8561   -3.9883 H         1 <0>         0.1315
     31 H10        -4.2292   -4.3055   -1.9679 H         1 <0>         0.4039
@<TRIPOS>BOND
     1    1    2 2
     2    1   22 1
     3    1   23 1
     4    2    3 1
     5    2   24 1
     6    3    4 1
     7    3   25 1
     8    3   26 1
     9    4    5 1
    10    4   21 2
    11    5    6 1
    12    5    8 2
    13    6    7 3
    14    8    9 1
    15    8   10 1
    16   10   11 1
    17   10   31 1
    18   11   16 ar
    19   11   12 ar
    20   12   13 ar
    21   12   27 1
    22   13   14 ar
    23   13   28 1
    24   14   15 ar
    25   14   17 1
    26   15   16 ar
    27   15   29 1
    28   16   30 1
    29   17   18 1
    30   17   19 1
    31   17   20 1
@<TRIPOS>MOLECULE
CHEMBL344613__1
   32    32     0     0     0
SMALL
NO_CHARGES

@<TRIPOS>ATOM
      1 C1         -0.0158    1.3031    0.0023 C.2       1 <0>        -0.1775
      2 C2         -0.0009   -0.0068    0.0003 C.2       1 <0>        -0.1543
      3 C3          1.3126   -0.7453   -0.0207 C.3       1 <0>        -0.1346
      4 C4          1.3688   -1.7034    1.1412 C.2       1 <0>         0.3676
      5 C5          2.5862   -2.5675    1.3470 C.3       1 <0>        -0.0573
      6 C6          3.5518   -1.8589    2.2028 C.1       1 <0>         0.1996
      7 N1          4.2970   -1.3121    2.8632 N.1       1 <0>        -0.3682
      8 C7          2.1798   -3.8582    2.0103 C.2       1 <0>         0.5275
      9 O1          1.0161   -4.0569    2.2884 O.2       1 <0>        -0.4654
     10 N2          3.1094   -4.7918    2.2944 N.am      1 <0>        -0.6694
     11 C8          2.7489   -5.9472    2.9965 C.ar      1 <0>         0.1740
     12 C9          3.6354   -6.5168    3.9010 C.ar      1 <0>        -0.1423
     13 C10         3.2766   -7.6573    4.5924 C.ar      1 <0>        -0.0493
     14 C11         2.0360   -8.2319    4.3848 C.ar      1 <0>        -0.1957
     15 C12         1.1512   -7.6674    3.4845 C.ar      1 <0>        -0.0489
     16 C13         1.5016   -6.5234    2.7945 C.ar      1 <0>        -0.1211
     17 C14         1.6478   -9.4763    5.1410 C.3       1 <0>         0.5096
     18 F1          1.0216   -9.1174    6.3394 F         1 <0>        -0.1754
     19 F2          0.7676  -10.2380    4.3649 F         1 <0>        -0.1761
     20 F3          2.7936  -10.2287    5.4206 F         1 <0>        -0.1768
     21 O2          0.4384   -1.7788    1.9072 O.2       1 <0>        -0.3808
     22 H1          0.9131    1.8538   -0.0112 H         1 <0>         0.0980
     23 H2         -0.9572    1.8324    0.0128 H         1 <0>         0.1044
     24 H3         -0.9299   -0.5575    0.0138 H         1 <0>         0.1192
     25 H4          1.4022   -1.3007   -0.9543 H         1 <0>         0.1182
     26 H5          2.1323   -0.0311    0.0573 H         1 <0>         0.1077
     27 H6          4.0284   -4.6627    2.0121 H         1 <0>         0.4174
     28 H7          4.6046   -6.0687    4.0633 H         1 <0>         0.1398
     29 H8          3.9657   -8.1010    5.2957 H         1 <0>         0.1425
     30 H9          0.1832   -8.1187    3.3243 H         1 <0>         0.1424
     31 H10         0.8081   -6.0800    2.0953 H         1 <0>         0.1526
     32 H11         3.0457   -2.7836    0.3825 H         1 <0>         0.1722
@<TRIPOS>BOND
     1    1    2 2
     2    1   22 1
     3    1   23 1
     4    2    3 1
     5    2   24 1
     6    3    4 1
     7    3   25 1
     8    3   26 1
     9    4    5 1
    10    4   21 2
    11    5    6 1
    12    5    8 1
    13    5   32 1
    14    6    7 3
    15    8    9 2
    16    8   10 am
    17   10   11 1
    18   10   27 1
    19   11   16 ar
    20   11   12 ar
    21   12   13 ar
    22   12   28 1
    23   13   14 ar
    24   13   29 1
    25   14   15 ar
    26   14   17 1
    27   15   16 ar
    28   15   30 1
    29   16   31 1
    30   17   18 1
    31   17   19 1
    32   17   20 1
@<TRIPOS>MOLECULE
CHEMBL140558
   30    31     0     0     0
SMALL
USER_CHARGES

@<TRIPOS>ATOM
      1 C1          1.1292   -0.7106   -0.0282 C.ar      1 <0>         0.0029
      2 C2          2.3500   -0.0587   -0.0309 C.ar      1 <0>        -0.2328
      3 C3          2.3743    1.3313   -0.0190 C.ar      1 <0>         0.4156
      4 N1          1.2468    2.0250   -0.0049 N.ar      1 <0>        -0.4565
      5 C4          0.0690    1.4311   -0.0020 C.ar      1 <0>         0.1938
      6 C5         -0.0295    0.0535   -0.0137 C.ar      1 <0>        -0.3053
      7 C6         -1.3810   -0.6132   -0.0108 C.3       1 <0>         0.5220
      8 F1         -1.7905   -0.8313    1.3090 F         1 <0>        -0.1806
      9 F2         -2.3088    0.2108   -0.6568 F         1 <0>        -0.1782
     10 F3         -1.2983   -1.8379   -0.6819 F         1 <0>        -0.1824
     11 N2          3.5964    2.0003   -0.0215 N.pl3     1 <0>        -0.6483
     12 C7          3.6290    3.3586   -0.1174 C.2       1 <0>         0.5305
     13 O1          2.4817    4.0619   -0.1028 O.3       1 <0>        -0.5589
     14 C8          4.8538    4.0218   -0.2308 C.2       1 <0>        -0.4410
     15 C9          4.8876    5.4273   -0.3299 C.2       1 <0>         0.4451
     16 C10         6.2084    6.1425   -0.4522 C.3       1 <0>        -0.1984
     17 C11         6.4090    7.4044    0.3893 C.3       1 <0>        -0.1602
     18 C12         6.2077    7.5175   -1.1232 C.3       1 <0>        -0.1618
     19 O2          3.8518    6.0622   -0.3168 O.2       1 <0>        -0.4996
     20 C13         6.0746    3.2735   -0.2463 C.1       1 <0>         0.2997
     21 N3          7.0431    2.6798   -0.2585 N.1       1 <0>        -0.5419
     22 H1          1.0792   -1.7893   -0.0417 H         1 <0>         0.1424
     23 H2          3.2713   -0.6221   -0.0417 H         1 <0>         0.1412
     24 H3         -0.8298    2.0297    0.0097 H         1 <0>         0.1639
     25 H4          4.4240    1.4988    0.0450 H         1 <0>         0.4103
     26 H5          7.0759    5.5031   -0.6158 H         1 <0>         0.1026
     27 H6          5.5856    7.7173    1.0314 H         1 <0>         0.0973
     28 H7          7.4086    7.5954    0.7796 H         1 <0>         0.0893
     29 H8          7.0748    7.7829   -1.7279 H         1 <0>         0.0887
     30 H9          5.2519    7.9048   -1.4761 H         1 <0>         0.1005
@<TRIPOS>BOND
     1    1    6 ar
     2    1    2 ar
     3    1   22 1
     4    2    3 ar
     5    2   23 1
     6    3    4 ar
     7    3   11 1
     8    4    5 ar
     9    5    6 ar
    10    5   24 1
    11    6    7 1
    12    7    8 1
    13    7    9 1
    14    7   10 1
    15   11   12 1
    16   11   25 1
    17   12   13 1
    18   12   14 2
    19   14   20 1
    20   14   15 1
    21   15   19 2
    22   15   16 1
    23   16   18 1
    24   16   17 1
    25   16   26 1
    26   17   18 1
    27   17   27 1
    28   17   28 1
    29   18   29 1
    30   18   30 1
    31   20   21 3
@<TRIPOS>MOLECULE
CHEMBL218169
   41    44     0     0     0
SMALL
USER_CHARGES

@<TRIPOS>ATOM
      1 C1          3.8681    1.3639   -3.6957 C.ar      1 <0>        -0.1572
      2 C2          3.7383   -0.0126   -3.6775 C.ar      1 <0>        -0.0821
      3 C3          3.6251   -0.6811   -2.4740 C.ar      1 <0>        -0.1943
      4 C4          3.6417    0.0300   -1.2826 C.ar      1 <0>         0.1260
      5 C5          3.7721    1.4113   -1.3036 C.ar      1 <0>        -0.1486
      6 C6          3.8850    2.0749   -2.5099 C.ar      1 <0>        -0.0840
      7 O1          3.5301   -0.6251   -0.0974 O.3       1 <0>        -0.2575
      8 C7          3.4141   -1.9780   -0.1251 C.ar      1 <0>         0.0863
      9 C8          2.1569   -2.5645   -0.1960 C.ar      1 <0>        -0.1246
     10 C9          2.0357   -3.9372   -0.2239 C.ar      1 <0>        -0.0370
     11 C10         3.1777   -4.7377   -0.1813 C.ar      1 <0>        -0.0377
     12 C11         4.4390   -4.1454   -0.1106 C.ar      1 <0>        -0.1023
     13 C12         4.5534   -2.7721   -0.0883 C.ar      1 <0>        -0.1277
     14 C13         3.0512   -6.2131   -0.2106 C.ar      1 <0>         0.0685
     15 C14         2.0768   -6.8312    0.6040 C.ar      1 <0>         0.2547
     16 C15         1.9529   -8.2217    0.5805 C.ar      1 <0>        -0.0769
     17 C16         2.8584   -8.9610   -0.3035 C.ar      1 <0>        -0.0511
     18 C17         2.8097  -10.3552   -0.3955 C.ar      1 <0>        -0.0465
     19 C18         3.6697  -11.0063   -1.2307 C.ar      1 <0>        -0.1430
     20 C19         4.5959  -10.2989   -1.9926 C.ar      1 <0>        -0.0806
     21 C20         4.6692   -8.9409   -1.9263 C.ar      1 <0>        -0.1476
     22 C21         3.7980   -8.2355   -1.0763 C.ar      1 <0>         0.0822
     23 N1          3.8456   -6.9033   -0.9974 N.ar      1 <0>        -0.4366
     24 C22         0.9556   -8.9158    1.4089 C.2       1 <0>         0.5471
     25 O2         -0.1396   -9.1968    0.9411 O.co2     1 <0>        -0.6740
     26 O3          1.2209   -9.2123    2.5660 O.co2     1 <0>        -0.6699
     27 O4          1.2732   -6.0848    1.3979 O.3       1 <0>        -0.6176
     28 H1          3.9610    1.8843   -4.6375 H         1 <0>         0.1232
     29 H2          3.7251   -0.5655   -4.6052 H         1 <0>         0.1247
     30 H3          3.5234   -1.7562   -2.4604 H         1 <0>         0.1290
     31 H4          3.7849    1.9671   -0.3777 H         1 <0>         0.1318
     32 H5          3.9868    3.1500   -2.5268 H         1 <0>         0.1294
     33 H6          1.2734   -1.9443   -0.2290 H         1 <0>         0.1366
     34 H7          1.0579   -4.3926   -0.2783 H         1 <0>         0.1488
     35 H8          5.3248   -4.7623   -0.0771 H         1 <0>         0.1285
     36 H9          5.5296   -2.3129   -0.0380 H         1 <0>         0.1335
     37 H10         2.0956  -10.9135    0.1916 H         1 <0>         0.1423
     38 H11         3.6319  -12.0834   -1.3016 H         1 <0>         0.1295
     39 H12         5.2672  -10.8359   -2.6464 H         1 <0>         0.1292
     40 H13         5.3937   -8.4074   -2.5237 H         1 <0>         0.1299
     41 H14         4.4943   -6.4270   -1.5390 H         1 <0>         0.4154
@<TRIPOS>BOND
     1    1    6 ar
     2    1    2 ar
     3    1   28 1
     4    2    3 ar
     5    2   29 1
     6    3    4 ar
     7    3   30 1
     8    4    5 ar
     9    4    7 1
    10    5    6 ar
    11    5   31 1
    12    6   32 1
    13    7    8 1
    14    8   13 ar
    15    8    9 ar
    16    9   10 ar
    17    9   33 1
    18   10   11 ar
    19   10   34 1
    20   11   12 ar
    21   11   14 1
    22   12   13 ar
    23   12   35 1
    24   13   36 1
    25   14   23 ar
    26   14   15 ar
    27   15   16 ar
    28   15   27 1
    29   16   17 ar
    30   16   24 1
    31   17   22 ar
    32   17   18 ar
    33   18   19 ar
    34   18   37 1
    35   19   20 ar
    36   19   38 1
    37   20   21 ar
    38   20   39 1
    39   21   22 ar
    40   21   40 1
    41   22   23 ar
    42   23   41 1
    43   24   25 2
    44   24   26 1
@<TRIPOS>MOLECULE
CHEMBL218169__1
   41    44     0     0     0
SMALL
USER_CHARGES

@<TRIPOS>ATOM
      1 C1          3.9997    1.4128   -3.5275 C.ar      1 <0>        -0.1567
      2 C2          3.8503    0.0382   -3.5353 C.ar      1 <0>        -0.0808
      3 C3          3.7259   -0.6510   -2.3446 C.ar      1 <0>        -0.1918
      4 C4          3.7510    0.0374   -1.1401 C.ar      1 <0>         0.1242
      5 C5          3.9011    1.4168   -1.1351 C.ar      1 <0>        -0.1499
      6 C6          4.0251    2.1012   -2.3286 C.ar      1 <0>        -0.0858
      7 O1          3.6285   -0.6381    0.0325 O.3       1 <0>        -0.2595
      8 C7          3.4933   -1.9884   -0.0206 C.ar      1 <0>         0.0815
      9 C8          2.2279   -2.5555   -0.1038 C.ar      1 <0>        -0.1296
     10 C9          2.0872   -3.9255   -0.1575 C.ar      1 <0>        -0.0679
     11 C10         3.2175   -4.7430   -0.1287 C.ar      1 <0>        -0.0251
     12 C11         4.4871   -4.1702   -0.0456 C.ar      1 <0>        -0.0740
     13 C12         4.6210   -2.7993    0.0025 C.ar      1 <0>        -0.1260
     14 C13         3.0701   -6.2155   -0.1857 C.ar      1 <0>         0.1840
     15 C14         4.0470   -6.9738   -0.8683 C.ar      1 <0>         0.0509
     16 C15         3.9132   -8.3624   -0.9253 C.ar      1 <0>        -0.0589
     17 C16         2.7472   -8.9518   -0.2612 C.ar      1 <0>        -0.0773
     18 C17         2.5279  -10.3325   -0.2638 C.ar      1 <0>        -0.0692
     19 C18         1.4304  -10.8422    0.3663 C.ar      1 <0>        -0.1308
     20 C19         0.5255  -10.0033    1.0117 C.ar      1 <0>        -0.1043
     21 C20         0.7100   -8.6545    1.0327 C.ar      1 <0>        -0.0999
     22 C21         1.8307   -8.0932    0.3939 C.ar      1 <0>         0.1223
     23 N1          2.0376   -6.7740    0.4050 N.ar      1 <0>        -0.4725
     24 C22         4.9012   -9.1989   -1.6232 C.2       1 <0>         0.5354
     25 O2          5.8270   -9.7008   -1.0002 O.co2     1 <0>        -0.6750
     26 O3          4.7973   -9.3929   -2.8268 O.co2     1 <0>        -0.6649
     27 O4          5.0996   -6.3616   -1.4602 O.3       1 <0>        -0.4722
     28 H1          4.1013    1.9493   -4.4594 H         1 <0>         0.1231
     29 H2          3.8304   -0.4970   -4.4731 H         1 <0>         0.1261
     30 H3          3.6089   -1.7246   -2.3513 H         1 <0>         0.1314
     31 H4          3.9206    1.9550   -0.1990 H         1 <0>         0.1305
     32 H5          4.1423    3.1748   -2.3253 H         1 <0>         0.1285
     33 H6          1.3533   -1.9222   -0.1261 H         1 <0>         0.1322
     34 H7          1.1031   -4.3658   -0.2214 H         1 <0>         0.1376
     35 H8          5.3640   -4.8002   -0.0227 H         1 <0>         0.1338
     36 H9          5.6036   -2.3551    0.0624 H         1 <0>         0.1339
     37 H10         3.2232  -10.9919   -0.7620 H         1 <0>         0.1331
     38 H11         1.2612  -11.9088    0.3642 H         1 <0>         0.1257
     39 H12        -0.3366  -10.4294    1.5031 H         1 <0>         0.1258
     40 H13        -0.0016   -8.0179    1.5374 H         1 <0>         0.1314
     41 H14         5.8696   -6.2589   -0.8844 H         1 <0>         0.3809
@<TRIPOS>BOND
     1    1    6 ar
     2    1    2 ar
     3    1   28 1
     4    2    3 ar
     5    2   29 1
     6    3    4 ar
     7    3   30 1
     8    4    5 ar
     9    4    7 1
    10    5    6 ar
    11    5   31 1
    12    6   32 1
    13    7    8 1
    14    8   13 ar
    15    8    9 ar
    16    9   10 ar
    17    9   33 1
    18   10   11 ar
    19   10   34 1
    20   11   12 ar
    21   11   14 1
    22   12   13 ar
    23   12   35 1
    24   13   36 1
    25   14   23 ar
    26   14   15 ar
    27   15   16 ar
    28   15   27 1
    29   16   17 ar
    30   16   24 1
    31   17   22 ar
    32   17   18 ar
    33   18   19 ar
    34   18   37 1
    35   19   20 ar
    36   19   38 1
    37   20   21 ar
    38   20   39 1
    39   21   22 ar
    40   21   40 1
    41   22   23 ar
    42   24   25 2
    43   24   26 1
    44   27   41 1
@<TRIPOS>MOLECULE
CHEMBL141047
   28    28     0     0     0
SMALL
USER_CHARGES

@<TRIPOS>ATOM
      1 C1         -0.1912    1.0114   -1.6152 C.2       1 <0>        -0.1450
      2 C2         -0.0650   -0.1513   -0.9824 C.2       1 <0>        -0.1965
      3 C3          1.1364   -0.9765   -1.1913 C.2       1 <0>         0.4403
      4 C4          1.2752   -2.2553   -0.4953 C.2       1 <0>        -0.4438
      5 C5          0.2427   -2.7048    0.3893 C.1       1 <0>         0.3006
      6 N1         -0.5764   -3.0614    1.0910 N.1       1 <0>        -0.5427
      7 C6          2.4135   -3.0372   -0.6931 C.2       1 <0>         0.5420
      8 O1          3.3845   -2.6145   -1.5249 O.3       1 <0>        -0.6202
      9 N2          2.5428   -4.2282   -0.0449 N.pl3     1 <0>        -0.6800
     10 C7          3.7319   -4.9562   -0.1504 C.ar      1 <0>         0.2171
     11 C8          4.9544   -4.2966   -0.1469 C.ar      1 <0>        -0.1163
     12 C9          6.1271   -5.0186   -0.2508 C.ar      1 <0>        -0.0523
     13 C10         6.0852   -6.3967   -0.3587 C.ar      1 <0>        -0.2234
     14 C11         4.8698   -7.0563   -0.3630 C.ar      1 <0>        -0.0519
     15 C12         3.6936   -6.3408   -0.2532 C.ar      1 <0>        -0.1657
     16 C13         7.3668   -7.1812   -0.4724 C.3       1 <0>         0.5126
     17 F1          7.8160   -7.5285    0.8062 F         1 <0>        -0.1823
     18 F2          7.1380   -8.3428   -1.2178 F         1 <0>        -0.1822
     19 F3          8.3363   -6.4007   -1.1113 F         1 <0>        -0.1800
     20 O2          2.0150   -0.5940   -1.9439 O.2       1 <0>        -0.4899
     21 H1          0.5875    1.3504   -2.2824 H         1 <0>         0.1077
     22 H2         -1.0744    1.6146   -1.4655 H         1 <0>         0.0971
     23 H3         -0.8437   -0.4903   -0.3153 H         1 <0>         0.1091
     24 H4          1.8099   -4.5714    0.4899 H         1 <0>         0.4036
     25 H5          4.9878   -3.2204   -0.0634 H         1 <0>         0.1470
     26 H6          7.0779   -4.5065   -0.2482 H         1 <0>         0.1324
     27 H7          4.8405   -8.1326   -0.4478 H         1 <0>         0.1313
     28 H8          2.7450   -6.8570   -0.2517 H         1 <0>         0.1313
@<TRIPOS>BOND
     1    1    2 2
     2    1   21 1
     3    1   22 1
     4    2    3 1
     5    2   23 1
     6    3    4 1
     7    3   20 2
     8    4    5 1
     9    4    7 2
    10    5    6 3
    11    7    8 1
    12    7    9 1
    13    9   10 1
    14    9   24 1
    15   10   15 ar
    16   10   11 ar
    17   11   12 ar
    18   11   25 1
    19   12   13 ar
    20   12   26 1
    21   13   14 ar
    22   13   16 1
    23   14   15 ar
    24   14   27 1
    25   15   28 1
    26   16   17 1
    27   16   18 1
    28   16   19 1
@<TRIPOS>MOLECULE
CHEMBL106515
   47    51     0     0     0
SMALL
USER_CHARGES

@<TRIPOS>ATOM
      1 C1          0.2136    1.5616    0.2380 C.3       1 <0>         0.0257
      2 O1          0.1899    0.1328    0.2330 O.3       1 <0>        -0.3048
      3 C2         -1.0280   -0.4640    0.3065 C.ar      1 <0>         0.1392
      4 C3         -2.1774    0.3072    0.3761 C.ar      1 <0>        -0.2102
      5 C4         -3.4158   -0.3012    0.4504 C.ar      1 <0>        -0.0817
      6 C5         -3.5170   -1.6815    0.4558 C.ar      1 <0>        -0.1567
      7 C6         -2.3812   -2.4619    0.3870 C.ar      1 <0>        -0.0684
      8 C7         -1.1272   -1.8591    0.3064 C.ar      1 <0>        -0.0735
      9 C8          0.0959   -2.6925    0.2267 C.ar      1 <0>        -0.0317
     10 C9          1.0522   -2.4337   -0.7559 C.ar      1 <0>        -0.1035
     11 C10         2.1838   -3.2156   -0.8358 C.ar      1 <0>        -0.0743
     12 C11         2.3673   -4.2656    0.0601 C.ar      1 <0>        -0.0381
     13 C12         1.4242   -4.5117    1.0588 C.ar      1 <0>        -0.0529
     14 C13         0.2918   -3.7305    1.1374 C.ar      1 <0>        -0.1103
     15 C14         1.6582   -5.6026    2.0692 C.3       1 <0>        -0.0791
     16 C15         2.3540   -6.7960    1.4216 C.3       1 <0>        -0.0707
     17 C16         3.5765   -6.3498    0.6667 C.ar      1 <0>        -0.1279
     18 C17         3.5763   -5.1239   -0.0203 C.ar      1 <0>         0.2127
     19 N1          4.6171   -4.7201   -0.7215 N.ar      1 <0>        -0.4871
     20 C18         5.7420   -5.4292   -0.8096 C.ar      1 <0>         0.1218
     21 C19         6.8340   -4.9664   -1.5689 C.ar      1 <0>        -0.0708
     22 C20         7.9743   -5.7052   -1.6313 C.ar      1 <0>        -0.1358
     23 C21         8.0826   -6.9214   -0.9551 C.ar      1 <0>         0.0798
     24 C22         7.0415   -7.4035   -0.2138 C.ar      1 <0>        -0.1021
     25 C23         5.8551   -6.6693   -0.1308 C.ar      1 <0>        -0.0697
     26 C24         4.7085   -7.1510    0.6422 C.ar      1 <0>        -0.0371
     27 C25         4.7555   -8.4366    1.3658 C.2       1 <0>         0.5325
     28 O2          4.3788   -9.4618    0.8158 O.co2     1 <0>        -0.6695
     29 O3          5.1712   -8.4765    2.5152 O.co2     1 <0>        -0.6700
     30 F1          9.2300   -7.6301   -1.0351 F         1 <0>        -0.1420
     31 H1          1.2451    1.9081    0.1750 H         1 <0>         0.1006
     32 H2         -0.3488    1.9373   -0.6169 H         1 <0>         0.0543
     33 H3         -0.2376    1.9292    1.1596 H         1 <0>         0.0542
     34 H4         -2.1050    1.3847    0.3727 H         1 <0>         0.1279
     35 H5         -4.3091    0.3034    0.5049 H         1 <0>         0.1232
     36 H6         -4.4885   -2.1495    0.5145 H         1 <0>         0.1250
     37 H7         -2.4640   -3.5387    0.3919 H         1 <0>         0.1326
     38 H8          0.9055   -1.6220   -1.4529 H         1 <0>         0.1231
     39 H9          2.9275   -3.0145   -1.5927 H         1 <0>         0.1343
     40 H10        -0.4462   -3.9247    1.9017 H         1 <0>         0.1258
     41 H11         2.2821   -5.2174    2.8757 H         1 <0>         0.0816
     42 H12         0.7007   -5.9241    2.4790 H         1 <0>         0.0821
     43 H13         2.6484   -7.5042    2.1961 H         1 <0>         0.0907
     44 H14         1.6643   -7.2838    0.7328 H         1 <0>         0.0786
     45 H15         6.7661   -4.0285   -2.1000 H         1 <0>         0.1411
     46 H16         8.8094   -5.3451   -2.2138 H         1 <0>         0.1374
     47 H17         7.1343   -8.3464    0.3047 H         1 <0>         0.1435
@<TRIPOS>BOND
     1    1    2 1
     2    1   31 1
     3    1   32 1
     4    1   33 1
     5    2    3 1
     6    3    8 ar
     7    3    4 ar
     8    4    5 ar
     9    4   34 1
    10    5    6 ar
    11    5   35 1
    12    6    7 ar
    13    6   36 1
    14    7    8 ar
    15    7   37 1
    16    8    9 1
    17    9   14 ar
    18    9   10 ar
    19   10   11 ar
    20   10   38 1
    21   11   12 ar
    22   11   39 1
    23   12   18 1
    24   12   13 ar
    25   13   14 ar
    26   13   15 1
    27   14   40 1
    28   15   16 1
    29   15   41 1
    30   15   42 1
    31   16   17 1
    32   16   43 1
    33   16   44 1
    34   17   26 ar
    35   17   18 ar
    36   18   19 ar
    37   19   20 ar
    38   20   25 ar
    39   20   21 ar
    40   21   22 ar
    41   21   45 1
    42   22   23 ar
    43   22   46 1
    44   23   24 ar
    45   23   30 1
    46   24   25 ar
    47   24   47 1
    48   25   26 ar
    49   26   27 1
    50   27   28 2
    51   27   29 1
@<TRIPOS>MOLECULE
CHEMBL194954
   41    43     0     0     0
SMALL
USER_CHARGES

@<TRIPOS>ATOM
      1 C1         -0.1116    1.6531   -0.5532 C.ar      1 <0>        -0.0751
      2 C2          1.1003    2.3143   -0.5520 C.ar      1 <0>        -0.1043
      3 C3          2.2406    1.6779   -0.0643 C.ar      1 <0>        -0.0115
      4 C4          2.1524    0.3748    0.4209 C.ar      1 <0>        -0.0959
      5 C5          0.9325   -0.2807    0.4158 C.ar      1 <0>         0.1046
      6 C6         -0.1984    0.3604   -0.0719 C.ar      1 <0>        -0.1804
      7 O1          0.8425   -1.5520    0.8877 O.3       1 <0>        -0.3084
      8 C7         -0.4468   -2.1673    0.8524 C.3       1 <0>         0.6044
      9 F1         -0.9003   -2.2242   -0.4699 F         1 <0>        -0.1640
     10 F2         -0.3593   -3.4635    1.3715 F         1 <0>        -0.1308
     11 F3         -1.3430   -1.4167    1.6209 F         1 <0>        -0.1650
     12 C8          3.5437    2.3856   -0.0622 C.ar      1 <0>        -0.1014
     13 C9          4.5912    1.9242   -0.8614 C.ar      1 <0>         0.1293
     14 C10         5.8049    2.5859   -0.8581 C.ar      1 <0>         0.0842
     15 C11         5.9832    3.7107   -0.0587 C.ar      1 <0>         0.1651
     16 C12         4.9410    4.1723    0.7391 C.ar      1 <0>         0.0508
     17 C13         3.7233    3.5177    0.7346 C.ar      1 <0>         0.1268
     18 F4          2.7099    3.9697    1.5053 F         1 <0>        -0.1072
     19 F5          5.1173    5.2644    1.5145 F         1 <0>        -0.1116
     20 N1          7.2118    4.3779   -0.0568 N.am      1 <0>        -0.6718
     21 C14         7.9443    4.4443   -1.1862 C.2       1 <0>         0.5426
     22 O2          7.5104    3.9758   -2.2204 O.2       1 <0>        -0.3978
     23 C15         9.2750    5.0868   -1.1670 C.2       1 <0>        -0.2391
     24 C16        10.0596    5.3193   -2.2375 C.2       1 <0>        -0.0782
     25 C17        11.3218    5.9931   -1.7482 C.3       1 <0>         0.0738
     26 O3         11.0166    6.4925   -0.4331 O.3       1 <0>        -0.3689
     27 C18         9.9959    5.6062    0.0565 C.3       1 <0>         0.0891
     28 C19         9.7440    4.9776   -3.6358 C.2       1 <0>         0.5116
     29 O4          8.7365    4.3351   -3.8958 O.co2     1 <0>        -0.6174
     30 O5         10.4898    5.3364   -4.5362 O.co2     1 <0>        -0.6860
     31 F6          6.8190    2.1399   -1.6313 F         1 <0>        -0.0781
     32 F7          4.4190    0.8316   -1.6372 F         1 <0>        -0.1031
     33 H1         -0.9951    2.1489   -0.9272 H         1 <0>         0.1402
     34 H2          1.1650    3.3243   -0.9292 H         1 <0>         0.1375
     35 H3          3.0330   -0.1228    0.7995 H         1 <0>         0.1438
     36 H4         -1.1488   -0.1526   -0.0750 H         1 <0>         0.1361
     37 H5          7.5370    4.7929    0.7574 H         1 <0>         0.4142
     38 H6         12.1372    5.2715   -1.6964 H         1 <0>         0.0815
     39 H7         11.5893    6.8165   -2.4103 H         1 <0>         0.1083
     40 H8          9.3024    6.1482    0.6995 H         1 <0>         0.0837
     41 H9         10.4500    4.7804    0.6041 H         1 <0>         0.0682
@<TRIPOS>BOND
     1    1    6 ar
     2    1    2 ar
     3    1   33 1
     4    2    3 ar
     5    2   34 1
     6    3    4 ar
     7    3   12 1
     8    4    5 ar
     9    4   35 1
    10    5    6 ar
    11    5    7 1
    12    6   36 1
    13    7    8 1
    14    8    9 1
    15    8   10 1
    16    8   11 1
    17   12   17 ar
    18   12   13 ar
    19   13   14 ar
    20   13   32 1
    21   14   15 ar
    22   14   31 1
    23   15   16 ar
    24   15   20 1
    25   16   17 ar
    26   16   19 1
    27   17   18 1
    28   20   21 am
    29   20   37 1
    30   21   22 2
    31   21   23 1
    32   23   27 1
    33   23   24 2
    34   24   25 1
    35   24   28 1
    36   25   26 1
    37   25   38 1
    38   25   39 1
    39   26   27 1
    40   27   40 1
    41   27   41 1
    42   28   29 2
    43   28   30 1
@<TRIPOS>MOLECULE
CHEMBL194955
   41    43     0     0     0
SMALL
USER_CHARGES

@<TRIPOS>ATOM
      1 C1         -0.0201    1.4084   -0.6319 C.ar      1 <0>        -0.0767
      2 C2          1.1794    2.0914   -0.6055 C.ar      1 <0>        -0.1060
      3 C3          2.3429    1.4404   -0.1985 C.ar      1 <0>        -0.0079
      4 C4          2.2904    0.1007    0.1806 C.ar      1 <0>        -0.0957
      5 C5          1.0827   -0.5765    0.1509 C.ar      1 <0>         0.1050
      6 C6         -0.0715    0.0794   -0.2558 C.ar      1 <0>        -0.1820
      7 O1          1.0275   -1.8834    0.5195 O.3       1 <0>        -0.3076
      8 C7         -0.2510   -2.5194    0.4646 C.3       1 <0>         0.6043
      9 F1         -0.7367   -2.4778   -0.8467 F         1 <0>        -0.1647
     10 F2         -0.1272   -3.8514    0.8740 F         1 <0>        -0.1308
     11 F3         -1.1408   -1.8517    1.3129 F         1 <0>        -0.1653
     12 C8          3.6327    2.1714   -0.1696 C.ar      1 <0>        -0.1024
     13 C9          4.6678    1.7974   -1.0285 C.ar      1 <0>         0.1185
     14 C10         5.8691    2.4808   -0.9999 C.ar      1 <0>         0.1034
     15 C11         6.0473    3.5403   -0.1158 C.ar      1 <0>         0.1680
     16 C12         5.0174    3.9147    0.7415 C.ar      1 <0>         0.0495
     17 C13         3.8120    3.2385    0.7124 C.ar      1 <0>         0.1201
     18 F4          2.8105    3.6061    1.5413 F         1 <0>        -0.1097
     19 F5          5.1937    4.9436    1.5991 F         1 <0>        -0.1137
     20 N1          7.2634    4.2295   -0.0886 N.am      1 <0>        -0.6396
     21 C14         7.9683    4.3975   -1.2250 C.2       1 <0>         0.6089
     22 O2          7.5206    3.9993   -2.2824 O.2       1 <0>        -0.5003
     23 C15         9.2856    5.0660   -1.1852 C.2       1 <0>        -0.1786
     24 C16        10.3741    4.4030   -0.8318 C.2       1 <0>        -0.1118
     25 C17        11.6944    5.1524   -0.8135 C.3       1 <0>        -0.0056
     26 S1         11.2545    6.6689   -1.7675 S.3       1 <0>        -0.3131
     27 C18         9.4286    6.5316   -1.5551 C.3       1 <0>        -0.0084
     28 C19        10.3072    2.9772   -0.4656 C.2       1 <0>         0.5190
     29 O3          9.2228    2.4186   -0.3780 O.co2     1 <0>        -0.6538
     30 O4         11.3361    2.3525   -0.2494 O.co2     1 <0>        -0.6688
     31 F6          6.8712    2.1193   -1.8308 F         1 <0>        -0.0646
     32 F7          4.4957    0.7681   -1.8865 F         1 <0>        -0.1062
     33 H1         -0.9216    1.9152   -0.9432 H         1 <0>         0.1391
     34 H2          1.2163    3.1297   -0.9004 H         1 <0>         0.1364
     35 H3          3.1890   -0.4083    0.4963 H         1 <0>         0.1448
     36 H4         -1.0123   -0.4505   -0.2783 H         1 <0>         0.1355
     37 H5          7.5998    4.5867    0.7481 H         1 <0>         0.4186
     38 H6         11.9899    5.4019    0.2056 H         1 <0>         0.1090
     39 H7         12.4753    4.5839   -1.3185 H         1 <0>         0.1201
     40 H8          8.9066    6.7541   -2.4857 H         1 <0>         0.1100
     41 H9          9.0799    7.1758   -0.7480 H         1 <0>         0.1028
@<TRIPOS>BOND
     1    1    6 ar
     2    1    2 ar
     3    1   33 1
     4    2    3 ar
     5    2   34 1
     6    3    4 ar
     7    3   12 1
     8    4    5 ar
     9    4   35 1
    10    5    6 ar
    11    5    7 1
    12    6   36 1
    13    7    8 1
    14    8    9 1
    15    8   10 1
    16    8   11 1
    17   12   17 ar
    18   12   13 ar
    19   13   14 ar
    20   13   32 1
    21   14   15 ar
    22   14   31 1
    23   15   16 ar
    24   15   20 1
    25   16   17 ar
    26   16   19 1
    27   17   18 1
    28   20   21 am
    29   20   37 1
    30   21   22 2
    31   21   23 1
    32   23   27 1
    33   23   24 2
    34   24   25 1
    35   24   28 1
    36   25   26 1
    37   25   38 1
    38   25   39 1
    39   26   27 1
    40   27   40 1
    41   27   41 1
    42   28   29 2
    43   28   30 1
@<TRIPOS>MOLECULE
CHEMBL142996
   38    40     0     0     0
SMALL
USER_CHARGES

@<TRIPOS>ATOM
      1 C1         -0.0014    1.4074   -0.0597 C.ar      1 <0>        -0.1336
      2 C2          1.1788    2.1031   -0.2504 C.ar      1 <0>        -0.1163
      3 C3          2.3851    1.4326   -0.2556 C.ar      1 <0>        -0.1192
      4 C4          2.4126    0.0520   -0.0677 C.ar      1 <0>        -0.0207
      5 C5          1.2205   -0.6438    0.1245 C.ar      1 <0>        -0.1211
      6 C6          0.0200    0.0370    0.1274 C.ar      1 <0>        -0.1177
      7 C7          3.7060   -0.6744   -0.0728 C.ar      1 <0>        -0.0952
      8 C8          4.8980    0.0238   -0.2599 C.ar      1 <0>        -0.0863
      9 C9          6.0989   -0.6531   -0.2637 C.ar      1 <0>        -0.1167
     10 C10         6.1218   -2.0310   -0.0817 C.ar      1 <0>         0.1894
     11 C11         4.9344   -2.7293    0.1046 C.ar      1 <0>        -0.1660
     12 C12         3.7318   -2.0555    0.1154 C.ar      1 <0>        -0.0868
     13 N1          7.3401   -2.7152   -0.0864 N.pl3     1 <0>        -0.6760
     14 C13         8.4581   -2.1175    0.4085 C.2       1 <0>         0.5456
     15 O1          8.3700   -0.9139    1.0046 O.3       1 <0>        -0.6154
     16 C14         9.6980   -2.7537    0.2979 C.2       1 <0>        -0.4420
     17 C15        10.8556   -2.1348    0.8103 C.2       1 <0>         0.4453
     18 C16        12.1922   -2.8206    0.6911 C.3       1 <0>        -0.1986
     19 C17        13.1063   -2.8047    1.9179 C.3       1 <0>        -0.1604
     20 C18        13.4423   -1.9385    0.7024 C.3       1 <0>        -0.1618
     21 O2         10.7760   -1.0483    1.3484 O.2       1 <0>        -0.5011
     22 C19         9.7918   -4.0342   -0.3362 C.1       1 <0>         0.3019
     23 N2          9.8661   -5.0500   -0.8393 N.1       1 <0>        -0.5429
     24 H1         -0.9428    1.9367   -0.0522 H         1 <0>         0.1175
     25 H2          1.1563    3.1731   -0.3960 H         1 <0>         0.1204
     26 H3          3.3059    1.9767   -0.4054 H         1 <0>         0.1257
     27 H4          1.2360   -1.7138    0.2702 H         1 <0>         0.1235
     28 H5         -0.9045   -0.5012    0.2759 H         1 <0>         0.1195
     29 H6          4.8806    1.0943   -0.4021 H         1 <0>         0.1223
     30 H7          7.0226   -0.1126   -0.4087 H         1 <0>         0.1453
     31 H8          4.9544   -3.7999    0.2452 H         1 <0>         0.1212
     32 H9          2.8098   -2.5978    0.2649 H         1 <0>         0.1212
     33 H10         7.3890   -3.6161   -0.4425 H         1 <0>         0.4013
     34 H11        12.2097   -3.7102    0.0615 H         1 <0>         0.1026
     35 H12        12.7409   -2.2983    2.8113 H         1 <0>         0.0970
     36 H13        13.7252   -3.6842    2.0957 H         1 <0>         0.0892
     37 H14        14.2823   -2.2479    0.0805 H         1 <0>         0.0886
     38 H15        13.2979   -0.8621    0.7961 H         1 <0>         0.1003
@<TRIPOS>BOND
     1    1    6 ar
     2    1    2 ar
     3    1   24 1
     4    2    3 ar
     5    2   25 1
     6    3    4 ar
     7    3   26 1
     8    4    5 ar
     9    4    7 1
    10    5    6 ar
    11    5   27 1
    12    6   28 1
    13    7   12 ar
    14    7    8 ar
    15    8    9 ar
    16    8   29 1
    17    9   10 ar
    18    9   30 1
    19   10   11 ar
    20   10   13 1
    21   11   12 ar
    22   11   31 1
    23   12   32 1
    24   13   14 1
    25   13   33 1
    26   14   15 1
    27   14   16 2
    28   16   22 1
    29   16   17 1
    30   17   21 2
    31   17   18 1
    32   18   20 1
    33   18   19 1
    34   18   34 1
    35   19   20 1
    36   19   35 1
    37   19   36 1
    38   20   37 1
    39   20   38 1
    40   22   23 3
@<TRIPOS>MOLECULE
CHEMBL142996__1
   39    41     0     0     0
SMALL
NO_CHARGES

@<TRIPOS>ATOM
      1 C1         -0.0097    1.3922   -0.0218 C.ar      1 <0>        -0.1192
      2 C2          1.1693    2.0921   -0.2053 C.ar      1 <0>        -0.1167
      3 C3          2.3768    1.4240   -0.2162 C.ar      1 <0>        -0.1114
      4 C4          2.4070    0.0416   -0.0419 C.ar      1 <0>        -0.0447
      5 C5          1.2161   -0.6583    0.1426 C.ar      1 <0>        -0.1121
      6 C6          0.0143    0.0201    0.1517 C.ar      1 <0>        -0.1172
      7 C7          3.7019   -0.6821   -0.0531 C.ar      1 <0>        -0.0561
      8 C8          4.8926    0.0203   -0.2324 C.ar      1 <0>        -0.0889
      9 C9          6.0949   -0.6544   -0.2420 C.ar      1 <0>        -0.1147
     10 C10         6.1204   -2.0336   -0.0731 C.ar      1 <0>         0.1438
     11 C11         4.9345   -2.7360    0.1054 C.ar      1 <0>        -0.1374
     12 C12         3.7303   -2.0648    0.1214 C.ar      1 <0>        -0.0896
     13 N1          7.3409   -2.7157   -0.0832 N.am      1 <0>        -0.6672
     14 C13         8.4478   -2.1236    0.4074 C.2       1 <0>         0.5254
     15 O1          8.3682   -1.0389    0.9441 O.2       1 <0>        -0.4682
     16 C14         9.7845   -2.8094    0.2892 C.3       1 <0>        -0.0514
     17 C15        10.8499   -1.9440    0.9114 C.2       1 <0>         0.3953
     18 C16        12.2623   -1.9945    0.3882 C.3       1 <0>        -0.2226
     19 C17        13.3954   -2.0314    1.4156 C.3       1 <0>        -0.1472
     20 C18        13.1400   -0.7599    0.6037 C.3       1 <0>        -0.1440
     21 O2         10.5719   -1.2101    1.8292 O.2       1 <0>        -0.3889
     22 C19         9.7350   -4.1046    0.9870 C.1       1 <0>         0.2021
     23 N2          9.6968   -5.1041    1.5255 N.1       1 <0>        -0.3707
     24 H1         -0.9521    1.9196   -0.0096 H         1 <0>         0.1231
     25 H2          1.1447    3.1633   -0.3407 H         1 <0>         0.1248
     26 H3          3.2967    1.9714   -0.3599 H         1 <0>         0.1257
     27 H4          1.2337   -1.7297    0.2782 H         1 <0>         0.1250
     28 H5         -0.9092   -0.5213    0.2950 H         1 <0>         0.1245
     29 H6          4.8733    1.0920   -0.3641 H         1 <0>         0.1313
     30 H7          7.0176   -0.1107   -0.3813 H         1 <0>         0.1380
     31 H8          4.9566   -3.8078    0.2358 H         1 <0>         0.1292
     32 H9          2.8094   -2.6105    0.2646 H         1 <0>         0.1315
     33 H10         7.3910   -3.6150   -0.4433 H         1 <0>         0.4134
     34 H11        12.4016   -2.5560   -0.5356 H         1 <0>         0.1327
     35 H12        13.1192   -2.0191    2.4700 H         1 <0>         0.1032
     36 H13        14.2804   -2.6174    1.1680 H         1 <0>         0.1102
     37 H14        13.8571   -0.5095   -0.1781 H         1 <0>         0.1100
     38 H15        12.6959    0.0887    1.1239 H         1 <0>         0.1082
     39 H16        10.0175   -2.9723   -0.7631 H         1 <0>         0.1705
@<TRIPOS>BOND
     1    1    6 ar
     2    1    2 ar
     3    1   24 1
     4    2    3 ar
     5    2   25 1
     6    3    4 ar
     7    3   26 1
     8    4    5 ar
     9    4    7 1
    10    5    6 ar
    11    5   27 1
    12    6   28 1
    13    7   12 ar
    14    7    8 ar
    15    8    9 ar
    16    8   29 1
    17    9   10 ar
    18    9   30 1
    19   10   11 ar
    20   10   13 1
    21   11   12 ar
    22   11   31 1
    23   12   32 1
    24   13   14 am
    25   13   33 1
    26   14   15 2
    27   14   16 1
    28   16   22 1
    29   16   39 1
    30   16   17 1
    31   17   21 2
    32   17   18 1
    33   18   20 1
    34   18   19 1
    35   18   34 1
    36   19   20 1
    37   19   35 1
    38   19   36 1
    39   20   37 1
    40   20   38 1
    41   22   23 3
@<TRIPOS>MOLECULE
CHEMBL308141
   33    35     0     0     0
SMALL
USER_CHARGES

@<TRIPOS>ATOM
      1 C1          0.1355    1.1395   -0.7566 C.ar      1 <0>        -0.0757
      2 C2          1.3225    1.8450   -0.7478 C.ar      1 <0>        -0.1201
      3 C3          2.3824    1.4102    0.0346 C.ar      1 <0>         0.1204
      4 C4          2.2508    0.2664    0.8083 C.ar      1 <0>        -0.1839
      5 C5          1.0646   -0.4404    0.8003 C.ar      1 <0>        -0.0239
      6 C6          0.0028   -0.0054    0.0181 C.ar      1 <0>         0.0778
      7 N1         -1.2005   -0.7209    0.0101 N.pl3     1 <0>        -0.5876
      8 C7         -1.1851   -2.0642   -0.0990 C.2       1 <0>         0.4151
      9 S1          0.3064   -2.9043   -0.1185 S.2       1 <0>        -0.5311
     10 C8         -2.4513   -2.8092   -0.2014 C.2       1 <0>        -0.2971
     11 C9         -3.8005   -2.2409   -0.2057 C.2       1 <0>         0.1097
     12 N2         -4.6341   -3.2332   -0.3122 N.2       1 <0>        -0.2905
     13 O1         -3.8985   -4.4386   -0.3789 O.3       1 <0>        -0.0740
     14 C10        -2.5926   -4.1627   -0.3164 C.2       1 <0>         0.2280
     15 C11        -1.4719   -5.1693   -0.3613 C.3       1 <0>        -0.1328
     16 C12        -1.8358   -6.6172   -0.6957 C.3       1 <0>        -0.1663
     17 C13        -1.4386   -6.2386    0.7325 C.3       1 <0>        -0.1396
     18 O2          3.5510    2.1054    0.0426 O.3       1 <0>        -0.3094
     19 C14         4.6003    1.6009    0.8712 C.3       1 <0>         0.6040
     20 F1          4.9360    0.3060    0.4617 F         1 <0>        -0.1613
     21 F2          5.7214    2.4304    0.7607 F         1 <0>        -0.1292
     22 F3          4.1706    1.5724    2.2023 F         1 <0>        -0.1635
     23 H1         -0.6911    1.4806   -1.3623 H         1 <0>         0.1423
     24 H2          1.4260    2.7352   -1.3505 H         1 <0>         0.1474
     25 H3          3.0766   -0.0716    1.4169 H         1 <0>         0.1414
     26 H4          0.9626   -1.3313    1.4023 H         1 <0>         0.1565
     27 H5         -2.0453   -0.2499    0.0831 H         1 <0>         0.4135
     28 H6         -4.0556   -1.1939   -0.1337 H         1 <0>         0.2104
     29 H7         -0.5163   -4.7929   -0.7264 H         1 <0>         0.1898
     30 H8         -2.8858   -6.8418   -0.8833 H         1 <0>         0.1030
     31 H9         -1.1196   -7.1938   -1.2812 H         1 <0>         0.1127
     32 H10        -0.4611   -6.5660    1.0866 H         1 <0>         0.1151
     33 H11        -2.2273   -6.2141    1.4845 H         1 <0>         0.0989
@<TRIPOS>BOND
     1    1    6 ar
     2    1    2 ar
     3    1   23 1
     4    2    3 ar
     5    2   24 1
     6    3    4 ar
     7    3   18 1
     8    4    5 ar
     9    4   25 1
    10    5    6 ar
    11    5   26 1
    12    6    7 1
    13    7    8 1
    14    7   27 1
    15    8    9 2
    16    8   10 1
    17   10   14 2
    18   10   11 1
    19   11   12 2
    20   11   28 1
    21   12   13 1
    22   13   14 1
    23   14   15 1
    24   15   17 1
    25   15   16 1
    26   15   29 1
    27   16   17 1
    28   16   30 1
    29   16   31 1
    30   17   32 1
    31   17   33 1
    32   18   19 1
    33   19   20 1
    34   19   21 1
    35   19   22 1
@<TRIPOS>MOLECULE
CHEMBL197553
   43    45     0     0     0
SMALL
USER_CHARGES

@<TRIPOS>ATOM
      1 C1          0.0183    1.4755    0.0836 C.ar      1 <0>        -0.1138
      2 C2          1.2096    2.1763    0.1042 C.ar      1 <0>        -0.1255
      3 C3          2.4125    1.4956    0.0767 C.ar      1 <0>        -0.0925
      4 C4          2.4240    0.1141    0.0290 C.ar      1 <0>        -0.0839
      5 C5          1.2326   -0.5867    0.0093 C.ar      1 <0>        -0.0924
      6 C6          0.0298    0.0940    0.0354 C.ar      1 <0>        -0.1255
      7 C7          3.7353   -0.6278   -0.0019 C.3       1 <0>         0.1022
      8 O1          4.1553   -0.9088    1.3347 O.3       1 <0>        -0.3083
      9 C8          5.3291   -1.5787    1.4851 C.ar      1 <0>         0.1190
     10 C9          5.3362   -2.9661    1.5224 C.ar      1 <0>        -0.0836
     11 C10         6.5284   -3.6473    1.6752 C.ar      1 <0>        -0.0892
     12 C11         7.7202   -2.9434    1.7909 C.ar      1 <0>         0.1841
     13 C12         7.7126   -1.5548    1.7530 C.ar      1 <0>        -0.0736
     14 C13         6.5203   -0.8749    1.5954 C.ar      1 <0>        -0.0847
     15 Br1         6.5105    1.0151    1.5366 Br        1 <0>        -0.0299
     16 N1          8.9277   -3.6325    1.9460 N.am      1 <0>        -0.6577
     17 C14        10.0544   -3.1531    1.3829 C.2       1 <0>         0.6130
     18 O2         10.0376   -2.0839    0.8051 O.2       1 <0>        -0.5222
     19 C15        11.3103   -3.9273    1.4681 C.2       1 <0>        -0.1999
     20 C16        11.6536   -4.9195    0.6352 C.2       1 <0>        -0.1003
     21 C17        13.0015   -5.4876    1.0149 C.3       1 <0>        -0.0874
     22 C18        13.6350   -4.4241    1.9401 C.3       1 <0>        -0.1231
     23 C19        12.3896   -3.7065    2.5025 C.3       1 <0>        -0.0691
     24 C20        10.8313   -5.3910   -0.4932 C.2       1 <0>         0.5167
     25 O3          9.7114   -4.9316   -0.6676 O.co2     1 <0>        -0.6703
     26 O4         11.2688   -6.2417   -1.2551 O.co2     1 <0>        -0.6807
     27 Br2         3.7135   -3.9243    1.3648 Br        1 <0>        -0.0293
     28 H1         -0.9215    2.0071    0.1096 H         1 <0>         0.1208
     29 H2          1.2006    3.2556    0.1415 H         1 <0>         0.1224
     30 H3          3.3432    2.0432    0.0921 H         1 <0>         0.1239
     31 H4          1.2416   -1.6660   -0.0283 H         1 <0>         0.1239
     32 H5         -0.9010   -0.4535    0.0196 H         1 <0>         0.1225
     33 H6          3.6108   -1.5631   -0.5478 H         1 <0>         0.0669
     34 H7          4.4879   -0.0150   -0.4980 H         1 <0>         0.0666
     35 H8          6.5336   -4.7269    1.7049 H         1 <0>         0.1483
     36 H9          8.6389   -1.0070    1.8434 H         1 <0>         0.1597
     37 H10         8.9540   -4.4554    2.4589 H         1 <0>         0.4135
     38 H11        12.8789   -6.4299    1.5488 H         1 <0>         0.0784
     39 H12        13.6162   -5.6316    0.1263 H         1 <0>         0.0793
     40 H13        14.2105   -4.8944    2.7375 H         1 <0>         0.0719
     41 H14        14.2548   -3.7316    1.3705 H         1 <0>         0.0693
     42 H15        12.5866   -2.6412    2.6233 H         1 <0>         0.0686
     43 H16        12.0981   -4.1493    3.4549 H         1 <0>         0.0718
@<TRIPOS>BOND
     1    1    6 ar
     2    1    2 ar
     3    1   28 1
     4    2    3 ar
     5    2   29 1
     6    3    4 ar
     7    3   30 1
     8    4    5 ar
     9    4    7 1
    10    5    6 ar
    11    5   31 1
    12    6   32 1
    13    7    8 1
    14    7   33 1
    15    7   34 1
    16    8    9 1
    17    9   14 ar
    18    9   10 ar
    19   10   11 ar
    20   10   27 1
    21   11   12 ar
    22   11   35 1
    23   12   13 ar
    24   12   16 1
    25   13   14 ar
    26   13   36 1
    27   14   15 1
    28   16   17 am
    29   16   37 1
    30   17   18 2
    31   17   19 1
    32   19   23 1
    33   19   20 2
    34   20   21 1
    35   20   24 1
    36   21   22 1
    37   21   38 1
    38   21   39 1
    39   22   23 1
    40   22   40 1
    41   22   41 1
    42   23   42 1
    43   23   43 1
    44   24   25 2
    45   24   26 1
@<TRIPOS>MOLECULE
CHEMBL104302
   41    45     0     0     0
SMALL
USER_CHARGES

@<TRIPOS>ATOM
      1 C1         -0.0753    1.2519    0.3511 C.ar      1 <0>        -0.1217
      2 C2          1.0979    1.9821    0.2887 C.ar      1 <0>        -0.1191
      3 C3          2.3147    1.3340    0.2263 C.ar      1 <0>        -0.1095
      4 C4          2.3600   -0.0590    0.2262 C.ar      1 <0>        -0.0396
      5 C5          1.1747   -0.7897    0.2893 C.ar      1 <0>        -0.1094
      6 C6         -0.0363   -0.1309    0.3513 C.ar      1 <0>        -0.1178
      7 C7          3.6647   -0.7613    0.1588 C.ar      1 <0>        -0.0299
      8 C8          4.8514   -0.0278    0.1010 C.ar      1 <0>        -0.1177
      9 C9          6.0653   -0.6721    0.0436 C.ar      1 <0>        -0.0598
     10 C10         6.1201   -2.0698    0.0390 C.ar      1 <0>        -0.0369
     11 C11         4.9294   -2.8028    0.0886 C.ar      1 <0>        -0.0647
     12 C12         3.7081   -2.1533    0.1589 C.ar      1 <0>        -0.0859
     13 S1          4.9955   -4.5648    0.0564 S.3       1 <0>        -0.1070
     14 C13         6.4648   -4.8927   -0.9570 C.3       1 <0>        -0.0463
     15 C14         7.6120   -4.0456   -0.4726 C.ar      1 <0>        -0.1370
     16 C15         7.4448   -2.7349   -0.0113 C.ar      1 <0>         0.2101
     17 N1          8.4823   -2.0186    0.4076 N.ar      1 <0>        -0.4837
     18 C16         9.7302   -2.4762    0.4199 C.ar      1 <0>         0.1297
     19 C17        10.7979   -1.6761    0.8699 C.ar      1 <0>        -0.0708
     20 C18        12.0633   -2.1752    0.8684 C.ar      1 <0>        -0.1304
     21 C19        12.3254   -3.4729    0.4268 C.ar      1 <0>         0.0833
     22 C20        11.3140   -4.2770   -0.0168 C.ar      1 <0>        -0.1001
     23 C21        10.0029   -3.7939   -0.0277 C.ar      1 <0>        -0.0713
     24 C22         8.8847   -4.6119   -0.4940 C.ar      1 <0>        -0.0192
     25 C23         9.0970   -5.9922   -0.9717 C.2       1 <0>         0.5282
     26 O1          9.2865   -6.2053   -2.1609 O.co2     1 <0>        -0.6645
     27 O2          9.0835   -6.9227   -0.1783 O.co2     1 <0>        -0.6631
     28 F1         13.5935   -3.9388    0.4377 F         1 <0>        -0.1398
     29 H1         -1.0251    1.7633    0.4044 H         1 <0>         0.1209
     30 H2          1.0615    3.0615    0.2884 H         1 <0>         0.1230
     31 H3          3.2300    1.9052    0.1772 H         1 <0>         0.1267
     32 H4          1.2040   -1.8693    0.2892 H         1 <0>         0.1273
     33 H5         -0.9554   -0.6960    0.4005 H         1 <0>         0.1237
     34 H6          4.8159    1.0516    0.1018 H         1 <0>         0.1299
     35 H7          6.9786   -0.0972    0.0015 H         1 <0>         0.1401
     36 H8          2.7927   -2.7241    0.2090 H         1 <0>         0.1361
     37 H9          6.7327   -5.9462   -0.8776 H         1 <0>         0.1337
     38 H10         6.2492   -4.6508   -1.9977 H         1 <0>         0.1038
     39 H11        10.6128   -0.6695    1.2148 H         1 <0>         0.1433
     40 H12        12.8785   -1.5570    1.2142 H         1 <0>         0.1399
     41 H13        11.5265   -5.2798   -0.3570 H         1 <0>         0.1456
@<TRIPOS>BOND
     1    1    6 ar
     2    1    2 ar
     3    1   29 1
     4    2    3 ar
     5    2   30 1
     6    3    4 ar
     7    3   31 1
     8    4    5 ar
     9    4    7 1
    10    5    6 ar
    11    5   32 1
    12    6   33 1
    13    7   12 ar
    14    7    8 ar
    15    8    9 ar
    16    8   34 1
    17    9   10 ar
    18    9   35 1
    19   10   16 1
    20   10   11 ar
    21   11   12 ar
    22   11   13 1
    23   12   36 1
    24   13   14 1
    25   14   15 1
    26   14   37 1
    27   14   38 1
    28   15   24 ar
    29   15   16 ar
    30   16   17 ar
    31   17   18 ar
    32   18   23 ar
    33   18   19 ar
    34   19   20 ar
    35   19   39 1
    36   20   21 ar
    37   20   40 1
    38   21   22 ar
    39   21   28 1
    40   22   23 ar
    41   22   41 1
    42   23   24 ar
    43   24   25 1
    44   25   26 2
    45   25   27 1
@<TRIPOS>MOLECULE
CHEMBL349577
   48    51     0     0     0
SMALL
USER_CHARGES

@<TRIPOS>ATOM
      1 C1         -0.0139    1.3288   -0.0553 C.ar      1 <0>        -0.1147
      2 C2          1.1687    2.0654   -0.0507 C.ar      1 <0>        -0.1190
      3 C3          2.3808    1.4441   -0.0626 C.ar      1 <0>        -0.1044
      4 C4          2.4430    0.0433   -0.0792 C.ar      1 <0>        -0.0398
      5 C5          1.2419   -0.7071   -0.0835 C.ar      1 <0>        -0.0491
      6 C6          0.0088   -0.0321   -0.0713 C.ar      1 <0>        -0.1112
      7 C7          1.3026   -2.1111   -0.0997 C.ar      1 <0>        -0.1115
      8 C8          2.5100   -2.7420   -0.1112 C.ar      1 <0>        -0.1101
      9 C9          3.6983   -2.0206   -0.1073 C.ar      1 <0>        -0.1088
     10 C10         3.6843   -0.6366   -0.0914 C.ar      1 <0>        -0.0189
     11 C11         4.9544    0.1244   -0.0877 C.ar      1 <0>        -0.0886
     12 C12         5.1492    1.1638   -0.9987 C.ar      1 <0>        -0.0522
     13 C13         6.3320    1.8704   -0.9932 C.ar      1 <0>        -0.1234
     14 C14         7.3314    1.5487   -0.0809 C.ar      1 <0>         0.2368
     15 C15         7.1399    0.5137    0.8277 C.ar      1 <0>        -0.2328
     16 C16         5.9564   -0.1924    0.8302 C.ar      1 <0>        -0.0363
     17 C17         8.2251    0.1677    1.8143 C.3       1 <0>         0.5111
     18 F1          7.8035   -0.8981    2.6166 F         1 <0>        -0.1766
     19 F2          9.3845   -0.1995    1.1227 F         1 <0>        -0.1752
     20 F3          8.4950    1.2793    2.6197 F         1 <0>        -0.1756
     21 N1          8.5290    2.2659   -0.0778 N.am      1 <0>        -0.6587
     22 C18         8.5611    3.5260   -0.5550 C.2       1 <0>         0.6160
     23 O1          7.5305    4.0741   -0.8933 O.2       1 <0>        -0.5161
     24 C19         9.8495    4.2411   -0.6669 C.2       1 <0>        -0.2028
     25 C20        10.6911    4.1404   -1.7050 C.2       1 <0>        -0.0986
     26 C21        11.9091    5.0077   -1.4857 C.3       1 <0>        -0.0874
     27 C22        11.5035    5.9859   -0.3602 C.3       1 <0>        -0.1224
     28 C23        10.3989    5.1929    0.3704 C.3       1 <0>        -0.0699
     29 C24        10.4611    3.3009   -2.8941 C.2       1 <0>         0.5172
     30 O2          9.4879    2.5618   -2.9419 O.co2     1 <0>        -0.6708
     31 O3         11.2433    3.3433   -3.8332 O.co2     1 <0>        -0.6796
     32 H1         -0.9624    1.8451   -0.0414 H         1 <0>         0.1213
     33 H2          1.1237    3.1444   -0.0378 H         1 <0>         0.1234
     34 H3          3.2896    2.0276   -0.0595 H         1 <0>         0.1338
     35 H4         -0.9157   -0.5904   -0.0744 H         1 <0>         0.1252
     36 H5          0.3912   -2.6904   -0.1027 H         1 <0>         0.1249
     37 H6          2.5446   -3.8213   -0.1233 H         1 <0>         0.1242
     38 H7          4.6421   -2.5455   -0.1166 H         1 <0>         0.1269
     39 H8          4.3736    1.4137   -1.7075 H         1 <0>         0.1355
     40 H9          6.4833    2.6745   -1.6981 H         1 <0>         0.1661
     41 H10         5.8063   -0.9933    1.5390 H         1 <0>         0.1395
     42 H11         9.3380    1.8574    0.2678 H         1 <0>         0.4104
     43 H12        12.7565    4.3985   -1.1713 H         1 <0>         0.0789
     44 H13        12.1524    5.5565   -2.3955 H         1 <0>         0.0801
     45 H14        12.3450    6.1880    0.3025 H         1 <0>         0.0723
     46 H15        11.1039    6.9118   -0.7738 H         1 <0>         0.0697
     47 H16         9.6159    5.8656    0.7202 H         1 <0>         0.0691
     48 H17        10.8245    4.6379    1.2065 H         1 <0>         0.0720
@<TRIPOS>BOND
     1    1    6 ar
     2    1    2 ar
     3    1   32 1
     4    2    3 ar
     5    2   33 1
     6    3    4 ar
     7    3   34 1
     8    4   10 ar
     9    4    5 ar
    10    5    6 ar
    11    5    7 ar
    12    6   35 1
    13    7    8 ar
    14    7   36 1
    15    8    9 ar
    16    8   37 1
    17    9   10 ar
    18    9   38 1
    19   10   11 1
    20   11   16 ar
    21   11   12 ar
    22   12   13 ar
    23   12   39 1
    24   13   14 ar
    25   13   40 1
    26   14   15 ar
    27   14   21 1
    28   15   16 ar
    29   15   17 1
    30   16   41 1
    31   17   18 1
    32   17   19 1
    33   17   20 1
    34   21   22 am
    35   21   42 1
    36   22   23 2
    37   22   24 1
    38   24   28 1
    39   24   25 2
    40   25   26 1
    41   25   29 1
    42   26   27 1
    43   26   43 1
    44   26   44 1
    45   27   28 1
    46   27   45 1
    47   27   46 1
    48   28   47 1
    49   28   48 1
    50   29   30 2
    51   29   31 1
@<TRIPOS>MOLECULE
CHEMBL195246
   41    43     0     0     0
SMALL
USER_CHARGES

@<TRIPOS>ATOM
      1 C1          0.0194    1.4730    0.0673 C.ar      1 <0>        -0.1139
      2 C2          1.2112    2.1733    0.0801 C.ar      1 <0>        -0.1255
      3 C3          2.4136    1.4918    0.0552 C.ar      1 <0>        -0.0925
      4 C4          2.4243    0.1100    0.0179 C.ar      1 <0>        -0.0837
      5 C5          1.2325   -0.5903    0.0060 C.ar      1 <0>        -0.0925
      6 C6          0.0301    0.0912    0.0294 C.ar      1 <0>        -0.1256
      7 C7          3.7351   -0.6329   -0.0103 C.3       1 <0>         0.1023
      8 O1          4.1578   -0.9041    1.3276 O.3       1 <0>        -0.3084
      9 C8          5.3316   -1.5735    1.4805 C.ar      1 <0>         0.1182
     10 C9          5.3379   -2.9606    1.5283 C.ar      1 <0>        -0.0835
     11 C10         6.5301   -3.6413    1.6836 C.ar      1 <0>        -0.0877
     12 C11         7.7226   -2.9372    1.7916 C.ar      1 <0>         0.1904
     13 C12         7.7156   -1.5490    1.7432 C.ar      1 <0>        -0.0743
     14 C13         6.5234   -0.8696    1.5830 C.ar      1 <0>        -0.0844
     15 Br1         6.5145    1.0200    1.5100 Br        1 <0>        -0.0304
     16 N1          8.9300   -3.6258    1.9493 N.am      1 <0>        -0.6535
     17 C14        10.0559   -3.1508    1.3809 C.2       1 <0>         0.6174
     18 O2         10.0390   -2.0848    0.7974 O.2       1 <0>        -0.5168
     19 C15        11.3110   -3.9262    1.4671 C.2       1 <0>        -0.1802
     20 C16        11.5732   -4.8934    0.6041 C.2       1 <0>        -0.1143
     21 C17        12.8820   -5.6488    0.7513 C.3       1 <0>        -0.0052
     22 S1         13.8071   -4.5355    1.8950 S.3       1 <0>        -0.3147
     23 C18        12.3385   -3.6307    2.5450 C.3       1 <0>        -0.0088
     24 C19        10.6216   -5.2289   -0.4700 C.2       1 <0>         0.5196
     25 O3          9.5322   -4.6752   -0.5167 O.co2     1 <0>        -0.6560
     26 O4         10.9213   -6.0609   -1.3146 O.co2     1 <0>        -0.6699
     27 Br2         3.7144   -3.9190    1.3813 Br        1 <0>        -0.0301
     28 H1         -0.9200    2.0054    0.0913 H         1 <0>         0.1208
     29 H2          1.2029    3.2529    0.1093 H         1 <0>         0.1224
     30 H3          3.3447    2.0389    0.0645 H         1 <0>         0.1239
     31 H4          1.2408   -1.6699   -0.0236 H         1 <0>         0.1239
     32 H5         -0.9010   -0.4559    0.0197 H         1 <0>         0.1224
     33 H6          3.6089   -1.5722   -0.5488 H         1 <0>         0.0667
     34 H7          4.4870   -0.0243   -0.5125 H         1 <0>         0.0666
     35 H8          6.5348   -4.7206    1.7215 H         1 <0>         0.1472
     36 H9          8.6424   -1.0009    1.8275 H         1 <0>         0.1592
     37 H10         8.9568   -4.4451    2.4678 H         1 <0>         0.4114
     38 H11        12.7212   -6.6282    1.2017 H         1 <0>         0.1083
     39 H12        13.3930   -5.7388   -0.2073 H         1 <0>         0.1192
     40 H13        12.5357   -2.5611    2.6165 H         1 <0>         0.1096
     41 H14        12.0251   -4.0353    3.5074 H         1 <0>         0.1025
@<TRIPOS>BOND
     1    1    6 ar
     2    1    2 ar
     3    1   28 1
     4    2    3 ar
     5    2   29 1
     6    3    4 ar
     7    3   30 1
     8    4    5 ar
     9    4    7 1
    10    5    6 ar
    11    5   31 1
    12    6   32 1
    13    7    8 1
    14    7   33 1
    15    7   34 1
    16    8    9 1
    17    9   14 ar
    18    9   10 ar
    19   10   11 ar
    20   10   27 1
    21   11   12 ar
    22   11   35 1
    23   12   13 ar
    24   12   16 1
    25   13   14 ar
    26   13   36 1
    27   14   15 1
    28   16   17 am
    29   16   37 1
    30   17   18 2
    31   17   19 1
    32   19   23 1
    33   19   20 2
    34   20   21 1
    35   20   24 1
    36   21   22 1
    37   21   38 1
    38   21   39 1
    39   22   23 1
    40   23   40 1
    41   23   41 1
    42   24   25 2
    43   24   26 1
@<TRIPOS>MOLECULE
CHEMBL143052
   27    28     0     0     0
SMALL
USER_CHARGES

@<TRIPOS>ATOM
      1 C1          1.1306   -0.7106   -0.0283 C.ar      1 <0>        -0.0372
      2 C2          2.3508   -0.0578   -0.0309 C.ar      1 <0>        -0.2199
      3 C3          2.3743    1.3321   -0.0190 C.ar      1 <0>         0.3908
      4 N1          1.2469    2.0257   -0.0049 N.ar      1 <0>        -0.4447
      5 C4          0.0690    1.4320   -0.0020 C.ar      1 <0>         0.1536
      6 C5         -0.0294    0.0532   -0.0137 C.ar      1 <0>        -0.1460
      7 Cl1        -1.5860   -0.7153   -0.0104 Cl        1 <0>        -0.0774
      8 N2          3.5967    2.0017   -0.0215 N.pl3     1 <0>        -0.6515
      9 C6          3.6289    3.3598   -0.1173 C.2       1 <0>         0.5328
     10 O1          2.4813    4.0629   -0.1028 O.3       1 <0>        -0.5626
     11 C7          4.8535    4.0235   -0.2308 C.2       1 <0>        -0.4428
     12 C8          4.8868    5.4289   -0.3299 C.2       1 <0>         0.4448
     13 C9          6.2074    6.1446   -0.4522 C.3       1 <0>        -0.1982
     14 C10         6.2725    7.3519   -1.3898 C.3       1 <0>        -0.1608
     15 C11         6.3012    7.5580    0.1260 C.3       1 <0>        -0.1614
     16 O2          3.8509    6.0636   -0.3168 O.2       1 <0>        -0.5009
     17 C12         6.0745    3.2755   -0.2462 C.1       1 <0>         0.3006
     18 N3          7.0432    2.6821   -0.2585 N.1       1 <0>        -0.5443
     19 H1          1.0813   -1.7894   -0.0417 H         1 <0>         0.1399
     20 H2          3.2725   -0.6206   -0.0417 H         1 <0>         0.1381
     21 H3         -0.8298    2.0306    0.0097 H         1 <0>         0.1612
     22 H4          7.0928    5.5126   -0.3827 H         1 <0>         0.1023
     23 H5          7.2008    7.5143   -1.9375 H         1 <0>         0.0888
     24 H6          5.3602    7.6285   -1.9182 H         1 <0>         0.0980
     25 H7          5.4077    7.9703    0.5948 H         1 <0>         0.0996
     26 H8          7.2484    7.8561    0.5755 H         1 <0>         0.0886
     27 H9          4.4244    1.5004    0.0450 H         1 <0>         0.4086
@<TRIPOS>BOND
     1    1    6 ar
     2    1    2 ar
     3    1   19 1
     4    2    3 ar
     5    2   20 1
     6    3    4 ar
     7    3    8 1
     8    4    5 ar
     9    5    6 ar
    10    5   21 1
    11    6    7 1
    12    8    9 1
    13    8   27 1
    14    9   10 1
    15    9   11 2
    16   11   17 1
    17   11   12 1
    18   12   16 2
    19   12   13 1
    20   13   15 1
    21   13   14 1
    22   13   22 1
    23   14   15 1
    24   14   23 1
    25   14   24 1
    26   15   25 1
    27   15   26 1
    28   17   18 3
@<TRIPOS>MOLECULE
CHEMBL342220
   54    57     0     0     0
SMALL
USER_CHARGES

@<TRIPOS>ATOM
      1 C1          1.0131    0.0284   -2.4065 C.ar      1 <0>        -0.1095
      2 C2          2.0824    0.8546   -2.1153 C.ar      1 <0>        -0.1214
      3 C3          3.2719    0.3129   -1.6652 C.ar      1 <0>        -0.0990
      4 C4          3.3918   -1.0550   -1.5059 C.ar      1 <0>        -0.1137
      5 C5          2.3222   -1.8811   -1.7962 C.ar      1 <0>        -0.0991
      6 C6          1.1332   -1.3395   -2.2476 C.ar      1 <0>        -0.1215
      7 C7          4.6889   -1.6456   -1.0161 C.3       1 <0>         0.1615
      8 N1          4.6684   -1.7238    0.4466 N.am      1 <0>        -0.7114
      9 C8          5.7302   -2.2230    1.1098 C.2       1 <0>         0.6066
     10 O1          6.7051   -2.6084    0.4941 O.2       1 <0>        -0.5238
     11 C9          5.7095   -2.3018    2.5847 C.2       1 <0>        -0.0134
     12 C10         6.7431   -2.7920    3.4074 C.2       1 <0>        -0.1123
     13 C11         6.2779   -2.6697    4.6913 C.2       1 <0>        -0.0389
     14 N2          5.0222   -2.1283    4.6046 N.pl3     1 <0>        -0.1934
     15 N3          4.7214   -1.9204    3.3731 N.2       1 <0>        -0.2199
     16 C12         4.1933   -1.8400    5.6950 C.ar      1 <0>         0.1116
     17 C13         4.7103   -1.1927    6.8099 C.ar      1 <0>        -0.0500
     18 C14         3.8903   -0.9090    7.8841 C.ar      1 <0>        -0.0974
     19 C15         2.5544   -1.2694    7.8507 C.ar      1 <0>        -0.0156
     20 C16         2.0367   -1.9145    6.7410 C.ar      1 <0>        -0.1031
     21 C17         2.8510   -2.1955    5.6617 C.ar      1 <0>        -0.0764
     22 Cl1         1.5265   -0.9123    9.2033 Cl        1 <0>        -0.0531
     23 C18         6.9886   -3.0468    5.9225 C.2       1 <0>         0.5919
     24 O2          6.4099   -3.0177    6.9920 O.2       1 <0>        -0.4967
     25 N4          8.2810   -3.4246    5.8657 N.am      1 <0>        -0.6533
     26 C19         8.9188   -3.8999    7.0097 C.ar      1 <0>         0.1720
     27 C20         8.5341   -3.4341    8.2633 C.ar      1 <0>        -0.1341
     28 C21         9.1621   -3.9017    9.3955 C.ar      1 <0>        -0.0362
     29 C22        10.1869   -4.8456    9.2850 C.ar      1 <0>        -0.1549
     30 C23        10.5706   -5.3117    8.0245 C.ar      1 <0>        -0.0637
     31 C24         9.9352   -4.8437    6.8966 C.ar      1 <0>        -0.1506
     32 C25        10.8627   -5.3487   10.4967 C.2       1 <0>         0.5639
     33 O3         10.5282   -4.9420   11.5926 O.2       1 <0>        -0.5386
     34 N5         11.8508   -6.2589   10.3884 N.am      1 <0>        -0.8516
     35 H1          0.0823    0.4521   -2.7539 H         1 <0>         0.1242
     36 H2          1.9887    1.9233   -2.2398 H         1 <0>         0.1251
     37 H3          4.1076    0.9583   -1.4384 H         1 <0>         0.1246
     38 H4          2.4160   -2.9498   -1.6720 H         1 <0>         0.1245
     39 H5          0.2976   -1.9849   -2.4748 H         1 <0>         0.1251
     40 H6          4.8125   -2.6457   -1.4317 H         1 <0>         0.0817
     41 H7          5.5186   -1.0147   -1.3347 H         1 <0>         0.0817
     42 H8          3.8905   -1.4163    0.9379 H         1 <0>         0.4095
     43 H9          7.6998   -3.1822    3.0929 H         1 <0>         0.1792
     44 H10         5.7528   -0.9118    6.8368 H         1 <0>         0.1388
     45 H11         4.2918   -0.4057    8.7512 H         1 <0>         0.1474
     46 H12         0.9940   -2.1950    6.7176 H         1 <0>         0.1475
     47 H13         2.4455   -2.6952    4.7944 H         1 <0>         0.1437
     48 H14         8.7673   -3.3656    5.0285 H         1 <0>         0.4188
     49 H15         7.7421   -2.7047    8.3481 H         1 <0>         0.1549
     50 H16         8.8636   -3.5393   10.3681 H         1 <0>         0.1420
     51 H17        11.3623   -6.0408    7.9357 H         1 <0>         0.1328
     52 H18        10.2287   -5.2063    5.9225 H         1 <0>         0.1365
     53 H19        12.1177   -6.5834    9.5141 H         1 <0>         0.4006
     54 H20        12.2950   -6.5896   11.1848 H         1 <0>         0.4065
@<TRIPOS>BOND
     1    1    6 ar
     2    1    2 ar
     3    1   35 1
     4    2    3 ar
     5    2   36 1
     6    3    4 ar
     7    3   37 1
     8    4    5 ar
     9    4    7 1
    10    5    6 ar
    11    5   38 1
    12    6   39 1
    13    7    8 1
    14    7   40 1
    15    7   41 1
    16    8    9 am
    17    8   42 1
    18    9   10 2
    19    9   11 1
    20   11   15 2
    21   11   12 1
    22   12   13 2
    23   12   43 1
    24   13   14 1
    25   13   23 1
    26   14   15 1
    27   14   16 1
    28   16   21 ar
    29   16   17 ar
    30   17   18 ar
    31   17   44 1
    32   18   19 ar
    33   18   45 1
    34   19   20 ar
    35   19   22 1
    36   20   21 ar
    37   20   46 1
    38   21   47 1
    39   23   24 2
    40   23   25 am
    41   25   26 1
    42   25   48 1
    43   26   31 ar
    44   26   27 ar
    45   27   28 ar
    46   27   49 1
    47   28   29 ar
    48   28   50 1
    49   29   30 ar
    50   29   32 1
    51   30   31 ar
    52   30   51 1
    53   31   52 1
    54   32   33 2
    55   32   34 am
    56   34   53 1
    57   34   54 1
@<TRIPOS>MOLECULE
CHEMBL416057
   44    46     0     0     0
SMALL
USER_CHARGES

@<TRIPOS>ATOM
      1 C1         -0.0030    1.5030    0.0089 C.3       1 <0>        -0.1095
      2 C2          0.0093   -0.0040    0.0013 C.ar      1 <0>        -0.1307
      3 C3         -0.0986   -0.7002   -1.1963 C.ar      1 <0>        -0.0373
      4 C4         -0.0788   -2.1621   -1.1267 C.ar      1 <0>        -0.0698
      5 C5         -0.1808   -2.9497   -2.2773 C.ar      1 <0>        -0.1023
      6 C6         -0.1577   -4.3109   -2.1673 C.ar      1 <0>         0.0799
      7 C7         -0.0334   -4.9246   -0.9197 C.ar      1 <0>        -0.1357
      8 C8          0.0675   -4.1866    0.2184 C.ar      1 <0>        -0.0707
      9 C9          0.0478   -2.7807    0.1436 C.ar      1 <0>         0.1195
     10 N1          0.1464   -2.0325    1.2424 N.ar      1 <0>        -0.4849
     11 C10         0.1357   -0.7170    1.2028 C.ar      1 <0>         0.2080
     12 C11         0.2562    0.0380    2.4734 C.ar      1 <0>        -0.0428
     13 C12         0.9389    1.2530    2.5032 C.ar      1 <0>        -0.0987
     14 C13         1.0475    1.9514    3.6885 C.ar      1 <0>        -0.1218
     15 C14         0.4809    1.4478    4.8456 C.ar      1 <0>        -0.0661
     16 C15        -0.1973    0.2424    4.8221 C.ar      1 <0>        -0.1298
     17 C16        -0.3176   -0.4618    3.6413 C.ar      1 <0>        -0.0768
     18 C17         0.6034    2.2151    6.1369 C.3       1 <0>        -0.0299
     19 C18        -0.0438    3.5920    5.9753 C.3       1 <0>        -0.1386
     20 C19        -0.1039    1.4473    7.2554 C.3       1 <0>        -0.1439
     21 C20         2.0821    2.3849    6.4909 C.3       1 <0>        -0.1382
     22 F1         -0.2567   -5.0723   -3.2789 F         1 <0>        -0.1419
     23 C21        -0.2283    0.0056   -2.4860 C.2       1 <0>         0.5327
     24 O1          0.7655    0.2325   -3.1615 O.co2     1 <0>        -0.6701
     25 O2         -1.3296    0.3636   -2.8790 O.co2     1 <0>        -0.6701
     26 H1          1.0204    1.8749   -0.0406 H         1 <0>         0.0717
     27 H2         -0.5636    1.8660   -0.8526 H         1 <0>         0.0771
     28 H3         -0.4747    1.8579    0.9252 H         1 <0>         0.0715
     29 H4         -0.2777   -2.4846   -3.2472 H         1 <0>         0.1436
     30 H5         -0.0175   -6.0026   -0.8571 H         1 <0>         0.1375
     31 H6          0.1627   -4.6772    1.1759 H         1 <0>         0.1410
     32 H7          1.3823    1.6468    1.6006 H         1 <0>         0.1378
     33 H8          1.5762    2.8929    3.7128 H         1 <0>         0.1225
     34 H9         -0.6374   -0.1462    5.7286 H         1 <0>         0.1259
     35 H10        -0.8515   -1.4004    3.6231 H         1 <0>         0.1270
     36 H11        -1.0972    3.4710    5.7231 H         1 <0>         0.0568
     37 H12         0.0448    4.1470    6.9092 H         1 <0>         0.0559
     38 H13         0.4601    4.1390    5.1784 H         1 <0>         0.0581
     39 H14         0.3571    0.4663    7.3705 H         1 <0>         0.0587
     40 H15        -0.0153    2.0022    8.1893 H         1 <0>         0.0556
     41 H16        -1.1574    1.3263    7.0032 H         1 <0>         0.0589
     42 H17         2.5860    2.9319    5.6940 H         1 <0>         0.0577
     43 H18         2.1707    2.9399    7.4248 H         1 <0>         0.0559
     44 H19         2.5432    1.4039    6.6060 H         1 <0>         0.0562
@<TRIPOS>BOND
     1    1    2 1
     2    1   26 1
     3    1   27 1
     4    1   28 1
     5    2   11 ar
     6    2    3 ar
     7    3    4 ar
     8    3   23 1
     9    4    9 ar
    10    4    5 ar
    11    5    6 ar
    12    5   29 1
    13    6    7 ar
    14    6   22 1
    15    7    8 ar
    16    7   30 1
    17    8    9 ar
    18    8   31 1
    19    9   10 ar
    20   10   11 ar
    21   11   12 1
    22   12   17 ar
    23   12   13 ar
    24   13   14 ar
    25   13   32 1
    26   14   15 ar
    27   14   33 1
    28   15   16 ar
    29   15   18 1
    30   16   17 ar
    31   16   34 1
    32   17   35 1
    33   18   19 1
    34   18   20 1
    35   18   21 1
    36   19   36 1
    37   19   37 1
    38   19   38 1
    39   20   39 1
    40   20   40 1
    41   20   41 1
    42   21   42 1
    43   21   43 1
    44   21   44 1
    45   23   24 2
    46   23   25 1
@<TRIPOS>MOLECULE
CHEMBL104209
   43    47     0     0     0
SMALL
USER_CHARGES

@<TRIPOS>ATOM
      1 C1         -0.0612    1.2545    0.5154 C.ar      1 <0>        -0.1239
      2 C2          1.1110    1.9847    0.4371 C.ar      1 <0>        -0.1189
      3 C3          2.3263    1.3367    0.3506 C.ar      1 <0>        -0.1119
      4 C4          2.3712   -0.0565    0.3422 C.ar      1 <0>        -0.0381
      5 C5          1.1868   -0.7871    0.4214 C.ar      1 <0>        -0.1114
      6 C6         -0.0228   -0.1283    0.5075 C.ar      1 <0>        -0.1182
      7 C7          3.6741   -0.7587    0.2489 C.ar      1 <0>        -0.0413
      8 C8          4.8574   -0.0238    0.1752 C.ar      1 <0>        -0.1218
      9 C9          6.0667   -0.6769    0.0781 C.ar      1 <0>        -0.0719
     10 C10         6.1040   -2.0684    0.0474 C.ar      1 <0>        -0.0358
     11 C11         4.9238   -2.8063    0.1452 C.ar      1 <0>        -0.0499
     12 C12         3.7145   -2.1525    0.2408 C.ar      1 <0>        -0.1122
     13 C13         4.9721   -4.3104    0.1821 C.3       1 <0>        -0.0802
     14 C14         6.0803   -4.8356   -0.7258 C.3       1 <0>        -0.0712
     15 C15         7.3828   -4.1462   -0.4233 C.ar      1 <0>        -0.1280
     16 C16         7.3985   -2.7865   -0.0686 C.ar      1 <0>         0.2103
     17 N1          8.5246   -2.1429    0.1676 N.ar      1 <0>        -0.4865
     18 C17         9.7163   -2.7360    0.1082 C.ar      1 <0>         0.1215
     19 C18        10.8989   -2.0157    0.3647 C.ar      1 <0>        -0.0706
     20 C19        12.1010   -2.6498    0.3097 C.ar      1 <0>        -0.1355
     21 C20        12.1854   -4.0079   -0.0010 C.ar      1 <0>         0.0810
     22 C21        11.0594   -4.7363   -0.2612 C.ar      1 <0>        -0.1025
     23 C22         9.8088   -4.1139   -0.2148 C.ar      1 <0>        -0.0688
     24 C23         8.5755   -4.8505   -0.4984 C.ar      1 <0>        -0.0362
     25 C24         8.6003   -6.2839   -0.8494 C.2       1 <0>         0.5322
     26 O1          8.6675   -6.6253   -2.0217 O.co2     1 <0>        -0.6689
     27 O2          8.5536   -7.1302    0.0322 O.co2     1 <0>        -0.6696
     28 F1         13.3944   -4.6091   -0.0444 F         1 <0>        -0.1415
     29 H1         -1.0097    1.7659    0.5875 H         1 <0>         0.1203
     30 H2          1.0750    3.0641    0.4433 H         1 <0>         0.1223
     31 H3          3.2409    1.9078    0.2891 H         1 <0>         0.1260
     32 H4          1.2156   -1.8667    0.4149 H         1 <0>         0.1267
     33 H5         -0.9411   -0.6933    0.5693 H         1 <0>         0.1229
     34 H6          4.8257    1.0556    0.1938 H         1 <0>         0.1265
     35 H7          6.9846   -0.1102    0.0254 H         1 <0>         0.1365
     36 H8          2.7976   -2.7196    0.3054 H         1 <0>         0.1288
     37 H9          5.1594   -4.6388    1.2044 H         1 <0>         0.0831
     38 H10         4.0144   -4.7088   -0.1528 H         1 <0>         0.0829
     39 H11         6.1960   -5.9079   -0.5682 H         1 <0>         0.0917
     40 H12         5.8098   -4.6528   -1.7658 H         1 <0>         0.0789
     41 H13        10.8515   -0.9635    0.6039 H         1 <0>         0.1414
     42 H14        13.0048   -2.0933    0.5092 H         1 <0>         0.1379
     43 H15        11.1352   -5.7864   -0.5019 H         1 <0>         0.1439
@<TRIPOS>BOND
     1    1    6 ar
     2    1    2 ar
     3    1   29 1
     4    2    3 ar
     5    2   30 1
     6    3    4 ar
     7    3   31 1
     8    4    5 ar
     9    4    7 1
    10    5    6 ar
    11    5   32 1
    12    6   33 1
    13    7   12 ar
    14    7    8 ar
    15    8    9 ar
    16    8   34 1
    17    9   10 ar
    18    9   35 1
    19   10   16 1
    20   10   11 ar
    21   11   12 ar
    22   11   13 1
    23   12   36 1
    24   13   14 1
    25   13   37 1
    26   13   38 1
    27   14   15 1
    28   14   39 1
    29   14   40 1
    30   15   24 ar
    31   15   16 ar
    32   16   17 ar
    33   17   18 ar
    34   18   23 ar
    35   18   19 ar
    36   19   20 ar
    37   19   41 1
    38   20   21 ar
    39   20   42 1
    40   21   22 ar
    41   21   28 1
    42   22   23 ar
    43   22   43 1
    44   23   24 ar
    45   24   25 1
    46   25   26 2
    47   25   27 1
@<TRIPOS>MOLECULE
CHEMBL104146
   44    48     0     0     0
SMALL
USER_CHARGES

@<TRIPOS>ATOM
      1 C1         -0.3406    1.7467   -0.0167 C.3       1 <0>        -0.1204
      2 C2         -0.4333    0.2435   -0.0688 C.ar      1 <0>        -0.0700
      3 C3         -0.5168   -0.4024   -1.2858 C.ar      1 <0>        -0.1217
      4 C4         -0.6014   -1.7820   -1.3351 C.ar      1 <0>        -0.1167
      5 C5         -0.6029   -2.5226   -0.1664 C.ar      1 <0>        -0.1256
      6 C6         -0.5198   -1.8877    1.0558 C.ar      1 <0>        -0.1013
      7 C7         -0.4290   -0.4977    1.1115 C.ar      1 <0>        -0.0458
      8 C8         -0.3339    0.1901    2.4218 C.ar      1 <0>        -0.0344
      9 C9          0.6555    1.1495    2.6390 C.ar      1 <0>        -0.1133
     10 C10         0.7371    1.7825    3.8553 C.ar      1 <0>        -0.0688
     11 C11        -0.1670    1.4733    4.8837 C.ar      1 <0>        -0.0365
     12 C12        -1.1515    0.5188    4.6659 C.ar      1 <0>        -0.0527
     13 C13        -1.2348   -0.1148    3.4379 C.ar      1 <0>        -0.1021
     14 C14        -2.1597    0.1325    5.7175 C.3       1 <0>        -0.0856
     15 S1         -1.3659    0.1264    7.3496 S.3       1 <0>        -0.0554
     16 C15        -0.5140    1.6691    7.3729 C.ar      1 <0>        -0.1543
     17 C16        -0.0081    2.2038    6.1655 C.ar      1 <0>         0.2154
     18 N1          0.6223    3.3639    6.1519 N.ar      1 <0>        -0.4786
     19 C17         0.8298    4.0941    7.2486 C.ar      1 <0>         0.1246
     20 C18         1.5098    5.3245    7.1771 C.ar      1 <0>        -0.0692
     21 C19         1.7125    6.0527    8.3089 C.ar      1 <0>        -0.1325
     22 C20         1.2567    5.6010    9.5471 C.ar      1 <0>         0.0854
     23 C21         0.5923    4.4109    9.6534 C.ar      1 <0>        -0.1000
     24 C22         0.3687    3.6418    8.5096 C.ar      1 <0>        -0.0637
     25 C23        -0.3423    2.3603    8.5747 C.ar      1 <0>         0.0009
     26 C24        -0.8510    1.8290    9.8443 C.2       1 <0>         0.5316
     27 O1         -0.1439    1.1033   10.5313 O.co2     1 <0>        -0.6639
     28 O2         -1.9824    2.1115   10.2165 O.co2     1 <0>        -0.6589
     29 F1          1.4743    6.3466   10.6526 F         1 <0>        -0.1393
     30 H1          0.7066    2.0474   -0.0466 H         1 <0>         0.0724
     31 H2         -0.8656    2.1729   -0.8716 H         1 <0>         0.0648
     32 H3         -0.7959    2.1071    0.9057 H         1 <0>         0.0737
     33 H4         -0.5164    0.1707   -2.2012 H         1 <0>         0.1222
     34 H5         -0.6669   -2.2831   -2.2895 H         1 <0>         0.1207
     35 H6         -0.6695   -3.5996   -0.2109 H         1 <0>         0.1227
     36 H7         -0.5215   -2.4668    1.9675 H         1 <0>         0.1256
     37 H8          1.3552    1.3934    1.8533 H         1 <0>         0.1285
     38 H9          1.5040    2.5245    4.0220 H         1 <0>         0.1386
     39 H10        -2.0029   -0.8547    3.2682 H         1 <0>         0.1295
     40 H11        -2.9796    0.8507    5.7154 H         1 <0>         0.1017
     41 H12        -2.5486   -0.8621    5.4994 H         1 <0>         0.1230
     42 H13         1.8700    5.6896    6.2267 H         1 <0>         0.1431
     43 H14         2.2352    6.9958    8.2471 H         1 <0>         0.1399
     44 H15         0.2424    4.0680   10.6158 H         1 <0>         0.1466
@<TRIPOS>BOND
     1    1    2 1
     2    1   30 1
     3    1   31 1
     4    1   32 1
     5    2    7 ar
     6    2    3 ar
     7    3    4 ar
     8    3   33 1
     9    4    5 ar
    10    4   34 1
    11    5    6 ar
    12    5   35 1
    13    6    7 ar
    14    6   36 1
    15    7    8 1
    16    8   13 ar
    17    8    9 ar
    18    9   10 ar
    19    9   37 1
    20   10   11 ar
    21   10   38 1
    22   11   17 1
    23   11   12 ar
    24   12   13 ar
    25   12   14 1
    26   13   39 1
    27   14   15 1
    28   14   40 1
    29   14   41 1
    30   15   16 1
    31   16   25 ar
    32   16   17 ar
    33   17   18 ar
    34   18   19 ar
    35   19   24 ar
    36   19   20 ar
    37   20   21 ar
    38   20   42 1
    39   21   22 ar
    40   21   43 1
    41   22   23 ar
    42   22   29 1
    43   23   24 ar
    44   23   44 1
    45   24   25 ar
    46   25   26 1
    47   26   27 2
    48   26   28 1
@<TRIPOS>MOLECULE
CHEMBL321163
   44    48     0     0     0
SMALL
USER_CHARGES

@<TRIPOS>ATOM
      1 C1         -0.1881    1.6302   -0.0083 C.3       1 <0>        -0.1207
      2 C2         -0.2279    0.1241   -0.0410 C.ar      1 <0>        -0.0691
      3 C3         -0.2702   -0.5404   -1.2501 C.ar      1 <0>        -0.1218
      4 C4         -0.3072   -1.9226   -1.2815 C.ar      1 <0>        -0.1164
      5 C5         -0.3021   -2.6470   -0.1029 C.ar      1 <0>        -0.1256
      6 C6         -0.2596   -1.9934    1.1116 C.ar      1 <0>        -0.1006
      7 C7         -0.2163   -0.6005    1.1493 C.ar      1 <0>        -0.0453
      8 C8         -0.1648    0.1076    2.4514 C.ar      1 <0>        -0.0287
      9 C9          0.7893    1.1038    2.6682 C.ar      1 <0>        -0.1128
     10 C10         0.8402    1.7682    3.8716 C.ar      1 <0>        -0.0622
     11 C11        -0.0633    1.4481    4.8904 C.ar      1 <0>        -0.0366
     12 C12        -1.0131    0.4439    4.6739 C.ar      1 <0>        -0.0657
     13 C13        -1.0716   -0.2160    3.4576 C.ar      1 <0>        -0.0822
     14 S1         -2.1359    0.0210    5.9665 S.3       1 <0>        -0.1073
     15 C14        -1.1565    0.3248    7.4638 C.3       1 <0>        -0.0465
     16 C15        -0.4967    1.6754    7.3707 C.ar      1 <0>        -0.1370
     17 C16         0.0091    2.1912    6.1719 C.ar      1 <0>         0.2103
     18 N1          0.5853    3.3875    6.1300 N.ar      1 <0>        -0.4837
     19 C17         0.7262    4.1694    7.1956 C.ar      1 <0>         0.1297
     20 C18         1.3486    5.4290    7.1009 C.ar      1 <0>        -0.0708
     21 C19         1.4774    6.2039    8.2114 C.ar      1 <0>        -0.1305
     22 C20         1.0014    5.7723    9.4503 C.ar      1 <0>         0.0831
     23 C21         0.3921    4.5563    9.5790 C.ar      1 <0>        -0.1001
     24 C22         0.2451    3.7362    8.4572 C.ar      1 <0>        -0.0714
     25 C23        -0.3967    2.4254    8.5405 C.ar      1 <0>        -0.0194
     26 C24        -0.9217    1.9136    9.8215 C.2       1 <0>         0.5282
     27 O1         -0.2152    1.2186   10.5379 O.co2     1 <0>        -0.6646
     28 O2         -2.0633    2.1844   10.1663 O.co2     1 <0>        -0.6632
     29 F1          1.1450    6.5657   10.5343 F         1 <0>        -0.1398
     30 H1          0.8484    1.9668   -0.0266 H         1 <0>         0.0724
     31 H2         -0.7142    2.0265   -0.8769 H         1 <0>         0.0649
     32 H3         -0.6699    1.9868    0.9021 H         1 <0>         0.0742
     33 H4         -0.2747    0.0201   -2.1733 H         1 <0>         0.1223
     34 H5         -0.3406   -2.4384   -2.2298 H         1 <0>         0.1206
     35 H6         -0.3319   -3.7262   -0.1334 H         1 <0>         0.1227
     36 H7         -0.2560   -2.5599    2.0311 H         1 <0>         0.1259
     37 H8          1.4911    1.3544    1.8865 H         1 <0>         0.1287
     38 H9          1.5800    2.5388    4.0304 H         1 <0>         0.1395
     39 H10        -1.8148   -0.9819    3.2916 H         1 <0>         0.1343
     40 H11        -1.8096    0.2993    8.3361 H         1 <0>         0.1334
     41 H12        -0.3924   -0.4465    7.5604 H         1 <0>         0.1034
     42 H13         1.7227    5.7785    6.1499 H         1 <0>         0.1432
     43 H14         1.9563    7.1687    8.1332 H         1 <0>         0.1398
     44 H15         0.0268    4.2308   10.5418 H         1 <0>         0.1455
@<TRIPOS>BOND
     1    1    2 1
     2    1   30 1
     3    1   31 1
     4    1   32 1
     5    2    7 ar
     6    2    3 ar
     7    3    4 ar
     8    3   33 1
     9    4    5 ar
    10    4   34 1
    11    5    6 ar
    12    5   35 1
    13    6    7 ar
    14    6   36 1
    15    7    8 1
    16    8   13 ar
    17    8    9 ar
    18    9   10 ar
    19    9   37 1
    20   10   11 ar
    21   10   38 1
    22   11   17 1
    23   11   12 ar
    24   12   13 ar
    25   12   14 1
    26   13   39 1
    27   14   15 1
    28   15   16 1
    29   15   40 1
    30   15   41 1
    31   16   25 ar
    32   16   17 ar
    33   17   18 ar
    34   18   19 ar
    35   19   24 ar
    36   19   20 ar
    37   20   21 ar
    38   20   42 1
    39   21   22 ar
    40   21   43 1
    41   22   23 ar
    42   22   29 1
    43   23   24 ar
    44   23   44 1
    45   24   25 ar
    46   25   26 1
    47   26   27 2
    48   26   28 1
@<TRIPOS>MOLECULE
CHEMBL106467
   44    48     0     0     0
SMALL
USER_CHARGES

@<TRIPOS>ATOM
      1 C1          0.3756    1.4993    0.1691 C.3       1 <0>        -0.1150
      2 C2          0.3444   -0.0071    0.1400 C.ar      1 <0>        -0.0882
      3 C3          0.2925   -0.6719   -1.0720 C.ar      1 <0>        -0.1197
      4 C4          0.2638   -2.0512   -1.1047 C.ar      1 <0>        -0.1045
      5 C5          0.2870   -2.7745    0.0865 C.ar      1 <0>        -0.0454
      6 C6          0.3393   -2.0994    1.3048 C.ar      1 <0>        -0.1044
      7 C7          0.3734   -0.7199    1.3252 C.ar      1 <0>        -0.1184
      8 C8          0.2558   -4.2571    0.0579 C.ar      1 <0>        -0.0278
      9 C9          0.2089   -4.9320   -1.1636 C.ar      1 <0>        -0.1185
     10 C10         0.1849   -6.3068   -1.1983 C.ar      1 <0>        -0.0595
     11 C11         0.2039   -7.0408   -0.0076 C.ar      1 <0>        -0.0378
     12 C12         0.2427   -6.3624    1.2153 C.ar      1 <0>        -0.0642
     13 C13         0.2791   -4.9782    1.2490 C.ar      1 <0>        -0.0868
     14 S1          0.2401   -7.2856    2.7180 S.3       1 <0>        -0.1075
     15 C14        -0.7397   -8.7510    2.2867 C.3       1 <0>        -0.0463
     16 C15        -0.2473   -9.3225    0.9831 C.ar      1 <0>        -0.1371
     17 C16         0.1896   -8.5221   -0.0787 C.ar      1 <0>         0.2104
     18 N1          0.6166   -9.0638   -1.2141 N.ar      1 <0>        -0.4838
     19 C17         0.6600  -10.3749   -1.4283 C.ar      1 <0>         0.1297
     20 C18         1.1173  -10.9010   -2.6518 C.ar      1 <0>        -0.0708
     21 C19         1.1479  -12.2480   -2.8385 C.ar      1 <0>        -0.1305
     22 C20         0.7324  -13.1241   -1.8348 C.ar      1 <0>         0.0831
     23 C21         0.2826  -12.6489   -0.6355 C.ar      1 <0>        -0.1001
     24 C22         0.2390  -11.2702   -0.4124 C.ar      1 <0>        -0.0715
     25 C23        -0.2353  -10.7093    0.8515 C.ar      1 <0>        -0.0191
     26 C24        -0.6866  -11.5835    1.9518 C.2       1 <0>         0.5281
     27 O1         -1.8683  -11.8823    2.0500 O.co2     1 <0>        -0.6645
     28 O2          0.1213  -12.0090    2.7653 O.co2     1 <0>        -0.6631
     29 F1          0.7750  -14.4569   -2.0517 F         1 <0>        -0.1398
     30 H1          1.4099    1.8420    0.1387 H         1 <0>         0.0698
     31 H2         -0.1624    1.8906   -0.6943 H         1 <0>         0.0655
     32 H3         -0.0982    1.8549    1.0841 H         1 <0>         0.0658
     33 H4          0.2742   -0.1103   -1.9943 H         1 <0>         0.1227
     34 H5          0.2229   -2.5692   -2.0515 H         1 <0>         0.1270
     35 H6          0.3571   -2.6548    2.2308 H         1 <0>         0.1275
     36 H7          0.4187   -0.1957    2.2684 H         1 <0>         0.1233
     37 H8          0.1916   -4.3712   -2.0865 H         1 <0>         0.1296
     38 H9          0.1510   -6.8211   -2.1474 H         1 <0>         0.1399
     39 H10         0.3210   -4.4600    2.1956 H         1 <0>         0.1358
     40 H11        -0.6383   -9.4996    3.0725 H         1 <0>         0.1337
     41 H12        -1.7881   -8.4700    2.1868 H         1 <0>         0.1037
     42 H13         1.4423  -10.2373   -3.4394 H         1 <0>         0.1432
     43 H14         1.4992  -12.6461   -3.7790 H         1 <0>         0.1399
     44 H15        -0.0372  -13.3345    0.1353 H         1 <0>         0.1455
@<TRIPOS>BOND
     1    1    2 1
     2    1   30 1
     3    1   31 1
     4    1   32 1
     5    2    7 ar
     6    2    3 ar
     7    3    4 ar
     8    3   33 1
     9    4    5 ar
    10    4   34 1
    11    5    6 ar
    12    5    8 1
    13    6    7 ar
    14    6   35 1
    15    7   36 1
    16    8   13 ar
    17    8    9 ar
    18    9   10 ar
    19    9   37 1
    20   10   11 ar
    21   10   38 1
    22   11   17 1
    23   11   12 ar
    24   12   13 ar
    25   12   14 1
    26   13   39 1
    27   14   15 1
    28   15   16 1
    29   15   40 1
    30   15   41 1
    31   16   25 ar
    32   16   17 ar
    33   17   18 ar
    34   18   19 ar
    35   19   24 ar
    36   19   20 ar
    37   20   21 ar
    38   20   42 1
    39   21   22 ar
    40   21   43 1
    41   22   23 ar
    42   22   29 1
    43   23   24 ar
    44   23   44 1
    45   24   25 ar
    46   25   26 1
    47   26   27 2
    48   26   28 1
@<TRIPOS>MOLECULE
CHEMBL322100
   41    45     0     0     0
SMALL
USER_CHARGES

@<TRIPOS>ATOM
      1 C1         -0.0587    1.2586    0.5151 C.ar      1 <0>        -0.1024
      2 C2          1.1138    1.9887    0.4369 C.ar      1 <0>        -0.1331
      3 C3          2.3289    1.3405    0.3497 C.ar      1 <0>        -0.0708
      4 C4          2.3734   -0.0530    0.3404 C.ar      1 <0>        -0.0444
      5 C5          1.1884   -0.7834    0.4195 C.ar      1 <0>        -0.0703
      6 C6         -0.0207   -0.1242    0.5063 C.ar      1 <0>        -0.1323
      7 C7          3.6754   -0.7552    0.2464 C.ar      1 <0>         0.3579
      8 N1          4.7887   -0.0364    0.1773 N.ar      1 <0>        -0.5182
      9 C8          5.9692   -0.6244    0.0805 C.ar      1 <0>         0.1924
     10 C9          6.0204   -2.0164    0.0470 C.ar      1 <0>        -0.1471
     11 C10         4.8302   -2.7403    0.1475 C.ar      1 <0>         0.2121
     12 N2          3.6900   -2.0827    0.2395 N.ar      1 <0>        -0.5086
     13 C11         4.8598   -4.2428    0.1868 C.3       1 <0>        -0.0717
     14 C12         5.9652   -4.7833   -0.7155 C.3       1 <0>        -0.0703
     15 C13         7.2751   -4.1049   -0.4203 C.ar      1 <0>        -0.1305
     16 C14         7.3066   -2.7428   -0.0719 C.ar      1 <0>         0.2168
     17 N3          8.4406   -2.1101    0.1545 N.ar      1 <0>        -0.4845
     18 C15         9.6260   -2.7155    0.0921 C.ar      1 <0>         0.1227
     19 C16        10.8174   -2.0059    0.3377 C.ar      1 <0>        -0.0691
     20 C17        12.0126   -2.6525    0.2792 C.ar      1 <0>        -0.1341
     21 C18        12.0814   -4.0134   -0.0232 C.ar      1 <0>         0.0849
     22 C19        10.9466   -4.7317   -0.2728 C.ar      1 <0>        -0.1032
     23 C20         9.7027   -4.0961   -0.2233 C.ar      1 <0>        -0.0658
     24 C21         8.4604   -4.8214   -0.4962 C.ar      1 <0>        -0.0303
     25 C22         8.4689   -6.2572   -0.8379 C.2       1 <0>         0.5311
     26 O1          8.5274   -6.6069   -2.0082 O.co2     1 <0>        -0.6667
     27 O2          8.4175   -7.0972    0.0494 O.co2     1 <0>        -0.6672
     28 F1         13.2840   -4.6271   -0.0700 F         1 <0>        -0.1401
     29 H1         -1.0070    1.7702    0.5878 H         1 <0>         0.1231
     30 H2          1.0780    3.0681    0.4439 H         1 <0>         0.1262
     31 H3          3.2436    1.9115    0.2884 H         1 <0>         0.1372
     32 H4          1.2168   -1.8630    0.4124 H         1 <0>         0.1378
     33 H5         -0.9393   -0.6889    0.5675 H         1 <0>         0.1266
     34 H6          6.8746   -0.0379    0.0282 H         1 <0>         0.1818
     35 H7          5.0388   -4.5718    1.2105 H         1 <0>         0.0983
     36 H8          3.8987   -4.6300   -0.1513 H         1 <0>         0.1009
     37 H9          6.0713   -5.8554   -0.5500 H         1 <0>         0.1012
     38 H10         5.6965   -4.6068   -1.7570 H         1 <0>         0.0821
     39 H11        10.7821   -0.9521    0.5713 H         1 <0>         0.1430
     40 H12        12.9231   -2.1041    0.4701 H         1 <0>         0.1393
     41 H13        11.0101   -5.7840   -0.5073 H         1 <0>         0.1454
@<TRIPOS>BOND
     1    1    6 ar
     2    1    2 ar
     3    1   29 1
     4    2    3 ar
     5    2   30 1
     6    3    4 ar
     7    3   31 1
     8    4    5 ar
     9    4    7 1
    10    5    6 ar
    11    5   32 1
    12    6   33 1
    13    7   12 ar
    14    7    8 ar
    15    8    9 ar
    16    9   10 ar
    17    9   34 1
    18   10   16 1
    19   10   11 ar
    20   11   12 ar
    21   11   13 1
    22   13   14 1
    23   13   35 1
    24   13   36 1
    25   14   15 1
    26   14   37 1
    27   14   38 1
    28   15   24 ar
    29   15   16 ar
    30   16   17 ar
    31   17   18 ar
    32   18   23 ar
    33   18   19 ar
    34   19   20 ar
    35   19   39 1
    36   20   21 ar
    37   20   40 1
    38   21   22 ar
    39   21   28 1
    40   22   23 ar
    41   22   41 1
    42   23   24 ar
    43   24   25 1
    44   25   26 2
    45   25   27 1
@<TRIPOS>MOLECULE
CHEMBL356115
   34    35     0     0     0
SMALL
USER_CHARGES

@<TRIPOS>ATOM
      1 C1          1.0655   -0.4479   -0.7843 C.ar      1 <0>        -0.1381
      2 C2          2.2489    0.2639   -0.8029 C.ar      1 <0>         0.0075
      3 C3          2.3750    1.4182   -0.0518 C.ar      1 <0>        -0.6916
      4 C4          1.3174    1.8638    0.7197 C.ar      1 <0>         0.0105
      5 C5          0.1312    1.1569    0.7423 C.ar      1 <0>        -0.1854
      6 C6          0.0013   -0.0031   -0.0106 C.ar      1 <0>         0.2574
      7 N1         -1.1984   -0.7212    0.0101 N.pl3     1 <0>        -0.6728
      8 C7         -1.1815   -2.0775   -0.1001 C.2       1 <0>         0.5408
      9 O1         -0.0083   -2.7369   -0.1155 O.3       1 <0>        -0.6072
     10 C8         -2.3828   -2.7859   -0.1973 C.2       1 <0>        -0.4355
     11 C9         -2.3654   -4.1902   -0.3113 C.2       1 <0>         0.4462
     12 C10        -3.6604   -4.9538   -0.4161 C.3       1 <0>        -0.2001
     13 C11        -3.6985   -6.1529   -1.3656 C.3       1 <0>        -0.1597
     14 C12        -3.6896   -6.3757    0.1480 C.3       1 <0>        -0.1605
     15 O2         -1.3063   -4.7854   -0.3252 O.2       1 <0>        -0.4973
     16 C13        -3.6311   -2.0843   -0.1809 C.1       1 <0>         0.2988
     17 N2         -4.6213   -1.5277   -0.1679 N.1       1 <0>        -0.5357
     18 S1          3.8869    2.3227   -0.0774 S.o2      1 <0>         2.4885
     19 O3          3.9205    3.0080    1.1670 O.2       1 <0>        -0.8691
     20 O4          4.8803    1.3596   -0.4011 O.2       1 <0>        -0.8652
     21 C14         3.6984    3.5074   -1.4381 C.3       1 <0>        -0.0247
     22 F1          2.6022    4.3387   -1.1841 F         1 <0>        -0.1588
     23 F2          4.8575    4.2836   -1.5446 F         1 <0>        -0.1653
     24 F3          3.4901    2.8136   -2.6350 F         1 <0>        -0.1568
     25 H1          0.9663   -1.3470   -1.3744 H         1 <0>         0.1589
     26 H2          3.0767   -0.0814   -1.4043 H         1 <0>         0.1455
     27 H3          1.4193    2.7654    1.3054 H         1 <0>         0.1444
     28 H4         -0.6944    1.5055    1.3450 H         1 <0>         0.1370
     29 H5         -4.5673   -4.3564   -0.3225 H         1 <0>         0.1031
     30 H6         -4.6307   -6.3445   -1.8971 H         1 <0>         0.0898
     31 H7         -2.7870   -6.3895   -1.9145 H         1 <0>         0.0985
     32 H8         -2.7723   -6.7588    0.5950 H         1 <0>         0.1000
     33 H9         -4.6160   -6.7139    0.6124 H         1 <0>         0.0896
     34 H10        -2.0426   -0.2526    0.1029 H         1 <0>         0.4072
@<TRIPOS>BOND
     1    1    6 ar
     2    1    2 ar
     3    1   25 1
     4    2    3 ar
     5    2   26 1
     6    3    4 ar
     7    3   18 1
     8    4    5 ar
     9    4   27 1
    10    5    6 ar
    11    5   28 1
    12    6    7 1
    13    7    8 1
    14    7   34 1
    15    8    9 1
    16    8   10 2
    17   10   16 1
    18   10   11 1
    19   11   15 2
    20   11   12 1
    21   12   14 1
    22   12   13 1
    23   12   29 1
    24   13   14 1
    25   13   30 1
    26   13   31 1
    27   14   32 1
    28   14   33 1
    29   16   17 3
    30   18   19 2
    31   18   20 2
    32   18   21 1
    33   21   22 1
    34   21   23 1
    35   21   24 1
@<TRIPOS>MOLECULE
CHEMBL356115__1
   35    36     0     0     0
SMALL
NO_CHARGES

@<TRIPOS>ATOM
      1 C1          1.0722   -0.4527   -0.7659 C.ar      1 <0>        -0.1409
      2 C2          2.2561    0.2585   -0.7777 C.ar      1 <0>         0.0146
      3 C3          2.3763    1.4164   -0.0313 C.ar      1 <0>        -0.6743
      4 C4          1.3122    1.8662    0.7287 C.ar      1 <0>         0.0143
      5 C5          0.1255    1.1598    0.7445 C.ar      1 <0>        -0.1612
      6 C6          0.0017   -0.0036   -0.0037 C.ar      1 <0>         0.2194
      7 N1         -1.1992   -0.7216    0.0101 N.am      1 <0>        -0.6718
      8 C7         -1.1825   -2.0648   -0.0990 C.2       1 <0>         0.5283
      9 O1         -0.1253   -2.6591   -0.1129 O.2       1 <0>        -0.4585
     10 C8         -2.4775   -2.8284   -0.2038 C.3       1 <0>        -0.0498
     11 C9         -2.1840   -4.3024   -0.3145 C.2       1 <0>         0.3952
     12 C10        -3.1240   -5.2029   -1.0739 C.3       1 <0>        -0.2237
     13 C11        -2.5052   -6.3159   -1.9219 C.3       1 <0>        -0.1419
     14 C12        -3.2288   -6.6598   -0.6184 C.3       1 <0>        -0.1472
     15 O2         -1.1956   -4.7619    0.2053 O.2       1 <0>        -0.3886
     16 C13        -3.2926   -2.5792    0.9964 C.1       1 <0>         0.1984
     17 N2         -3.9216   -2.3868    1.9226 N.1       1 <0>        -0.3650
     18 S1          3.8888    2.3202   -0.0481 S.o2      1 <0>         2.4906
     19 O3          3.9119    3.0115    1.1931 O.2       1 <0>        -0.8578
     20 O4          4.8845    1.3550   -0.3585 O.2       1 <0>        -0.8564
     21 C14         3.7126    3.4982   -1.4163 C.3       1 <0>        -0.0205
     22 F1          2.6146    4.3312   -1.1759 F         1 <0>        -0.1575
     23 F2          4.8729    4.2734   -1.5165 F         1 <0>        -0.1579
     24 F3          3.5144    2.7986   -2.6115 F         1 <0>        -0.1569
     25 H1          0.9776   -1.3547   -1.3523 H         1 <0>         0.1528
     26 H2          3.0890   -0.0902   -1.3702 H         1 <0>         0.1550
     27 H3          1.4094    2.7706    1.3109 H         1 <0>         0.1552
     28 H4         -0.7050    1.5114    1.3385 H         1 <0>         0.1458
     29 H5         -2.0437   -0.2526    0.0982 H         1 <0>         0.4199
     30 H6         -4.0293   -4.7269   -1.4506 H         1 <0>         0.1325
     31 H7         -3.0033   -6.5724   -2.8569 H         1 <0>         0.1110
     32 H8         -1.4182   -6.3969   -1.9305 H         1 <0>         0.1071
     33 H9         -2.6180   -6.9669    0.2305 H         1 <0>         0.1061
     34 H10        -4.2031   -7.1424   -0.6959 H         1 <0>         0.1101
     35 H11        -3.0230   -2.4991   -1.0882 H         1 <0>         0.1737
@<TRIPOS>BOND
     1    1    6 ar
     2    1    2 ar
     3    1   25 1
     4    2    3 ar
     5    2   26 1
     6    3    4 ar
     7    3   18 1
     8    4    5 ar
     9    4   27 1
    10    5    6 ar
    11    5   28 1
    12    6    7 1
    13    7    8 am
    14    7   29 1
    15    8    9 2
    16    8   10 1
    17   10   16 1
    18   10   35 1
    19   10   11 1
    20   11   15 2
    21   11   12 1
    22   12   14 1
    23   12   13 1
    24   12   30 1
    25   13   14 1
    26   13   31 1
    27   13   32 1
    28   14   33 1
    29   14   34 1
    30   16   17 3
    31   18   19 2
    32   18   20 2
    33   18   21 1
    34   21   22 1
    35   21   23 1
    36   21   24 1
@<TRIPOS>MOLECULE
CHEMBL49089
   52    56     0     0     0
SMALL
USER_CHARGES

@<TRIPOS>ATOM
      1 C1         -1.7390    0.6305    0.1544 C.3       1 <0>        -0.1027
      2 C2         -0.6879   -0.4427    0.0350 C.ar      1 <0>        -0.1317
      3 C3         -0.6248   -1.2384   -1.1008 C.ar      1 <0>        -0.0379
      4 C4          0.4223   -2.2611   -1.1480 C.ar      1 <0>        -0.0714
      5 C5          0.5647   -3.1093   -2.2500 C.ar      1 <0>        -0.1022
      6 C6          1.5554   -4.0499   -2.2539 C.ar      1 <0>         0.0782
      7 C7          2.4260   -4.1739   -1.1706 C.ar      1 <0>        -0.1365
      8 C8          2.3134   -3.3635   -0.0835 C.ar      1 <0>        -0.0710
      9 C9          1.3047   -2.3826   -0.0450 C.ar      1 <0>         0.1201
     10 N1          1.1722   -1.5741    1.0079 N.ar      1 <0>        -0.4830
     11 C10         0.2410   -0.6437    1.0695 C.ar      1 <0>         0.2461
     12 C11         0.1675    0.2145    2.2720 C.2       1 <0>        -0.1164
     13 C12         0.0691    1.5686    2.2980 C.2       1 <0>         0.0808
     14 N2          0.0250    2.0015    3.5886 N.pl3     1 <0>        -0.4766
     15 C13         0.0941    0.9322    4.4527 C.ar      1 <0>         0.1129
     16 C14         0.1802   -0.2331    3.6750 C.ar      1 <0>        -0.0741
     17 C15         0.2577   -1.4815    4.2910 C.ar      1 <0>        -0.0442
     18 C16         0.2463   -1.5715    5.6665 C.ar      1 <0>        -0.1503
     19 C17         0.1582   -0.4291    6.4444 C.ar      1 <0>        -0.0798
     20 C18         0.0885    0.8252    5.8501 C.ar      1 <0>        -0.0762
     21 C19        -0.0080    2.0433    6.6902 C.ar      1 <0>        -0.0327
     22 C20        -1.0789    2.9213    6.5292 C.ar      1 <0>        -0.0802
     23 C21        -1.1637    4.0529    7.3141 C.ar      1 <0>        -0.1189
     24 C22        -0.1887    4.3171    8.2595 C.ar      1 <0>        -0.0757
     25 C23         0.8761    3.4498    8.4233 C.ar      1 <0>        -0.1811
     26 C24         0.9684    2.3118    7.6478 C.ar      1 <0>        -0.0585
     27 C25         1.9346    3.7450    9.4546 C.3       1 <0>         0.5087
     28 F1          1.6238    4.9396   10.1131 F         1 <0>        -0.1779
     29 F2          1.9852    2.7000   10.3833 F         1 <0>        -0.1760
     30 F3          3.1776    3.8696    8.8246 F         1 <0>        -0.1758
     31 C26        -0.0799    3.4041    3.9985 C.3       1 <0>         0.0715
     32 F4          1.6934   -4.8698   -3.3188 F         1 <0>        -0.1429
     33 C27        -1.5753   -1.0610   -2.2160 C.2       1 <0>         0.5327
     34 O1         -1.2815   -0.3434   -3.1616 O.co2     1 <0>        -0.6716
     35 O2         -2.6567   -1.6316   -2.1943 O.co2     1 <0>        -0.6709
     36 H1         -1.3233    1.5841   -0.1711 H         1 <0>         0.0650
     37 H2         -2.5933    0.3738   -0.4721 H         1 <0>         0.0764
     38 H3         -2.0609    0.7100    1.1928 H         1 <0>         0.0654
     39 H4         -0.1046   -3.0217   -3.0931 H         1 <0>         0.1426
     40 H5          3.2014   -4.9253   -1.1953 H         1 <0>         0.1364
     41 H6          2.9952   -3.4727    0.7470 H         1 <0>         0.1404
     42 H7          0.0317    2.2060    1.4269 H         1 <0>         0.1766
     43 H8          0.3262   -2.3770    3.6912 H         1 <0>         0.1265
     44 H9          0.3060   -2.5399    6.1409 H         1 <0>         0.1256
     45 H10         0.1502   -0.5132    7.5211 H         1 <0>         0.1250
     46 H11        -1.8403    2.7163    5.7913 H         1 <0>         0.1334
     47 H12        -1.9927    4.7340    7.1900 H         1 <0>         0.1375
     48 H13        -0.2593    5.2040    8.8716 H         1 <0>         0.1382
     49 H14         1.7980    1.6329    7.7797 H         1 <0>         0.1363
     50 H15        -1.1245    3.6493    4.1905 H         1 <0>         0.0732
     51 H16         0.5031    3.5621    4.9058 H         1 <0>         0.0817
     52 H17         0.3035    4.0444    3.2041 H         1 <0>         0.0852
@<TRIPOS>BOND
     1    1    2 1
     2    1   36 1
     3    1   37 1
     4    1   38 1
     5    2   11 ar
     6    2    3 ar
     7    3    4 ar
     8    3   33 1
     9    4    9 ar
    10    4    5 ar
    11    5    6 ar
    12    5   39 1
    13    6    7 ar
    14    6   32 1
    15    7    8 ar
    16    7   40 1
    17    8    9 ar
    18    8   41 1
    19    9   10 ar
    20   10   11 ar
    21   11   12 1
    22   12   16 1
    23   12   13 2
    24   13   14 1
    25   13   42 1
    26   14   15 1
    27   14   31 1
    28   15   20 ar
    29   15   16 ar
    30   16   17 ar
    31   17   18 ar
    32   17   43 1
    33   18   19 ar
    34   18   44 1
    35   19   20 ar
    36   19   45 1
    37   20   21 1
    38   21   26 ar
    39   21   22 ar
    40   22   23 ar
    41   22   46 1
    42   23   24 ar
    43   23   47 1
    44   24   25 ar
    45   24   48 1
    46   25   26 ar
    47   25   27 1
    48   26   49 1
    49   27   28 1
    50   27   29 1
    51   27   30 1
    52   31   50 1
    53   31   51 1
    54   31   52 1
    55   33   34 2
    56   33   35 1
@<TRIPOS>MOLECULE
CHEMBL297497
   53    57     0     0     0
SMALL
USER_CHARGES

@<TRIPOS>ATOM
      1 C1         -1.7384    0.6320    0.1547 C.3       1 <0>        -0.1028
      2 C2         -0.6877   -0.4417    0.0348 C.ar      1 <0>        -0.1314
      3 C3         -0.6251   -1.2369   -1.1013 C.ar      1 <0>        -0.0386
      4 C4          0.4216   -2.2601   -1.1490 C.ar      1 <0>        -0.0719
      5 C5          0.5636   -3.1079   -2.2513 C.ar      1 <0>        -0.1020
      6 C6          1.5539   -4.0489   -2.2557 C.ar      1 <0>         0.0774
      7 C7          2.4245   -4.1737   -1.1725 C.ar      1 <0>        -0.1368
      8 C8          2.3123   -3.3637   -0.0850 C.ar      1 <0>        -0.0711
      9 C9          1.3040   -2.3824   -0.0460 C.ar      1 <0>         0.1203
     10 N1          1.1719   -1.5742    1.0071 N.ar      1 <0>        -0.4834
     11 C10         0.2412   -0.6435    1.0692 C.ar      1 <0>         0.2478
     12 C11         0.1684    0.2146    2.2718 C.2       1 <0>        -0.1189
     13 C12         0.0706    1.5688    2.2980 C.2       1 <0>         0.0804
     14 N2          0.0277    2.0016    3.5887 N.pl3     1 <0>        -0.4753
     15 C13         0.0968    0.9322    4.4526 C.ar      1 <0>         0.1130
     16 C14         0.1814   -0.2331    3.6747 C.ar      1 <0>        -0.0747
     17 C15         0.2586   -1.4816    4.2906 C.ar      1 <0>        -0.0475
     18 C16         0.2481   -1.5718    5.6661 C.ar      1 <0>        -0.1506
     19 C17         0.1614   -0.4294    6.4441 C.ar      1 <0>        -0.0812
     20 C18         0.0922    0.8250    5.8500 C.ar      1 <0>        -0.0710
     21 C19        -0.0027    2.0432    6.6904 C.ar      1 <0>         0.0044
     22 C20        -1.0733    2.9218    6.5297 C.ar      1 <0>        -0.1476
     23 C21        -1.1593    4.0548    7.3130 C.ar      1 <0>        -0.0800
     24 C22        -0.1858    4.3224    8.2576 C.ar      1 <0>        -0.2112
     25 C23         0.8833    3.4530    8.4240 C.ar      1 <0>         0.1275
     26 C24         0.9744    2.3101    7.6464 C.ar      1 <0>        -0.1393
     27 O1          1.8378    3.7200    9.3538 O.3       1 <0>        -0.3177
     28 C25         1.6773    4.9128   10.1242 C.3       1 <0>         0.0278
     29 C26        -0.0767    3.4042    3.9987 C.3       1 <0>         0.0734
     30 F1          1.6915   -4.8685   -3.3209 F         1 <0>        -0.1432
     31 C27        -1.5756   -1.0587   -2.2163 C.2       1 <0>         0.5330
     32 O2         -1.2815   -0.3409   -3.1617 O.co2     1 <0>        -0.6720
     33 O3         -2.6572   -1.6289   -2.1948 O.co2     1 <0>        -0.6712
     34 H1         -1.3223    1.5855   -0.1704 H         1 <0>         0.0649
     35 H2         -2.5928    0.3759   -0.4719 H         1 <0>         0.0761
     36 H3         -2.0602    0.7111    1.1931 H         1 <0>         0.0658
     37 H4         -0.1057   -3.0197   -3.0943 H         1 <0>         0.1423
     38 H5          3.1996   -4.9254   -1.1975 H         1 <0>         0.1362
     39 H6          2.9943   -3.4733    0.7452 H         1 <0>         0.1403
     40 H7          0.0329    2.2063    1.4270 H         1 <0>         0.1757
     41 H8          0.3261   -2.3771    3.6906 H         1 <0>         0.1253
     42 H9          0.3077   -2.5402    6.1404 H         1 <0>         0.1244
     43 H10         0.1541   -0.5136    7.5208 H         1 <0>         0.1245
     44 H11        -1.8350    2.7160    5.7922 H         1 <0>         0.1248
     45 H12        -1.9891    4.7346    7.1875 H         1 <0>         0.1263
     46 H13        -0.2573    5.2107    8.8677 H         1 <0>         0.1266
     47 H14         1.8034    1.6304    7.7779 H         1 <0>         0.1329
     48 H15         1.6666    5.7763    9.4591 H         1 <0>         0.0550
     49 H16         0.7375    4.8663   10.6743 H         1 <0>         0.0551
     50 H17         2.5054    5.0057   10.8269 H         1 <0>         0.0994
     51 H18        -1.1210    3.6496    4.1915 H         1 <0>         0.0734
     52 H19         0.5070    3.5619    4.9057 H         1 <0>         0.0834
     53 H20         0.3064    4.0445    3.2042 H         1 <0>         0.0821
@<TRIPOS>BOND
     1    1    2 1
     2    1   34 1
     3    1   35 1
     4    1   36 1
     5    2   11 ar
     6    2    3 ar
     7    3    4 ar
     8    3   31 1
     9    4    9 ar
    10    4    5 ar
    11    5    6 ar
    12    5   37 1
    13    6    7 ar
    14    6   30 1
    15    7    8 ar
    16    7   38 1
    17    8    9 ar
    18    8   39 1
    19    9   10 ar
    20   10   11 ar
    21   11   12 1
    22   12   16 1
    23   12   13 2
    24   13   14 1
    25   13   40 1
    26   14   15 1
    27   14   29 1
    28   15   20 ar
    29   15   16 ar
    30   16   17 ar
    31   17   18 ar
    32   17   41 1
    33   18   19 ar
    34   18   42 1
    35   19   20 ar
    36   19   43 1
    37   20   21 1
    38   21   26 ar
    39   21   22 ar
    40   22   23 ar
    41   22   44 1
    42   23   24 ar
    43   23   45 1
    44   24   25 ar
    45   24   46 1
    46   25   26 ar
    47   25   27 1
    48   26   47 1
    49   27   28 1
    50   28   48 1
    51   28   49 1
    52   28   50 1
    53   29   51 1
    54   29   52 1
    55   29   53 1
    56   31   32 2
    57   31   33 1
@<TRIPOS>MOLECULE
CHEMBL194075
   41    43     0     0     0
SMALL
USER_CHARGES

@<TRIPOS>ATOM
      1 C1          0.0850    1.1583   -0.5798 C.ar      1 <0>        -0.0742
      2 C2          1.2590    1.8838   -0.5448 C.ar      1 <0>        -0.1259
      3 C3          2.4429    1.2737   -0.1340 C.ar      1 <0>         0.0070
      4 C4          2.4367   -0.0681    0.2403 C.ar      1 <0>        -0.1152
      5 C5          1.2544   -0.7883    0.2022 C.ar      1 <0>         0.1080
      6 C6          0.0794   -0.1730   -0.2083 C.ar      1 <0>        -0.1932
      7 O1          1.2444   -2.0976    0.5662 O.3       1 <0>        -0.3087
      8 C7         -0.0101   -2.7791    0.5026 C.3       1 <0>         0.6044
      9 F1         -0.4903   -2.7504   -0.8111 F         1 <0>        -0.1654
     10 F2          0.1596   -4.1072    0.9083 F         1 <0>        -0.1313
     11 F3         -0.9277   -2.1467    1.3484 F         1 <0>        -0.1651
     12 C8          3.7059    2.0508   -0.0960 C.ar      1 <0>        -0.0286
     13 C9          4.8903    1.4376    0.3097 C.ar      1 <0>        -0.1385
     14 C10         6.0652    2.1621    0.3447 C.ar      1 <0>         0.1464
     15 C11         6.0673    3.5037   -0.0248 C.ar      1 <0>         0.1134
     16 C12         4.8857    4.1170   -0.4299 C.ar      1 <0>         0.0913
     17 C13         3.7105    3.3933   -0.4713 C.ar      1 <0>        -0.1350
     18 F4          4.8894    5.4197   -0.7879 F         1 <0>        -0.1306
     19 N1          7.2577    4.2363    0.0116 N.am      1 <0>        -0.6442
     20 C14         8.4289    3.6336   -0.2737 C.2       1 <0>         0.6073
     21 O2          8.4446    2.4677   -0.6170 O.2       1 <0>        -0.5073
     22 C15         9.6940    4.3901   -0.1692 C.2       1 <0>        -0.1767
     23 C16        10.2864    4.5660    1.0001 C.2       1 <0>        -0.1162
     24 C17        11.5839    5.3537    1.0340 C.3       1 <0>        -0.0045
     25 S1         12.0351    5.3706   -0.7547 S.3       1 <0>        -0.3161
     26 C18        10.3536    4.9820   -1.4020 C.3       1 <0>        -0.0078
     27 C19         9.7033    4.0134    2.2355 C.2       1 <0>         0.5189
     28 O3          8.6037    3.4788    2.2067 O.co2     1 <0>        -0.6516
     29 O4         10.3188    4.0894    3.2895 O.co2     1 <0>        -0.6721
     30 F5          7.2131    1.5682    0.7383 F         1 <0>        -0.0814
     31 H1         -0.8326    1.6335   -0.8941 H         1 <0>         0.1360
     32 H2          1.2602    2.9238   -0.8361 H         1 <0>         0.1366
     33 H3          3.3515   -0.5456    0.5591 H         1 <0>         0.1452
     34 H4         -0.8416   -0.7362   -0.2371 H         1 <0>         0.1331
     35 H5          4.8888    0.3965    0.5968 H         1 <0>         0.1457
     36 H6          2.7945    3.8682   -0.7904 H         1 <0>         0.1460
     37 H7          7.2406    5.1784    0.2421 H         1 <0>         0.4125
     38 H8         11.4196    6.3647    1.4068 H         1 <0>         0.1077
     39 H9         12.3409    4.8378    1.6247 H         1 <0>         0.1190
     40 H10        10.4022    4.2519   -2.2098 H         1 <0>         0.1092
     41 H11         9.8406    5.8880   -1.7247 H         1 <0>         0.1017
@<TRIPOS>BOND
     1    1    6 ar
     2    1    2 ar
     3    1   31 1
     4    2    3 ar
     5    2   32 1
     6    3    4 ar
     7    3   12 1
     8    4    5 ar
     9    4   33 1
    10    5    6 ar
    11    5    7 1
    12    6   34 1
    13    7    8 1
    14    8    9 1
    15    8   10 1
    16    8   11 1
    17   12   17 ar
    18   12   13 ar
    19   13   14 ar
    20   13   35 1
    21   14   15 ar
    22   14   30 1
    23   15   16 ar
    24   15   19 1
    25   16   17 ar
    26   16   18 1
    27   17   36 1
    28   19   20 am
    29   19   37 1
    30   20   21 2
    31   20   22 1
    32   22   26 1
    33   22   23 2
    34   23   24 1
    35   23   27 1
    36   24   25 1
    37   24   38 1
    38   24   39 1
    39   25   26 1
    40   26   40 1
    41   26   41 1
    42   27   28 2
    43   27   29 1
@<TRIPOS>MOLECULE
CHEMBL106930
   43    47     0     0     0
SMALL
USER_CHARGES

@<TRIPOS>ATOM
      1 C1          0.0988    1.6443    0.3894 C.ar      1 <0>        -0.1218
      2 C2          1.3039    2.3232    0.3851 C.ar      1 <0>        -0.1208
      3 C3          2.4922    1.6247    0.3136 C.ar      1 <0>        -0.1083
      4 C4          2.4763    0.2331    0.2463 C.ar      1 <0>        -0.0369
      5 C5          1.2596   -0.4457    0.2515 C.ar      1 <0>        -0.1075
      6 C6          0.0773    0.2628    0.3227 C.ar      1 <0>        -0.1180
      7 C7          3.7508   -0.5233    0.1688 C.ar      1 <0>        -0.0592
      8 C8          4.7206   -0.1647   -0.7667 C.ar      1 <0>        -0.0940
      9 C9          5.9096   -0.8634   -0.8385 C.ar      1 <0>        -0.1324
     10 C10         6.1405   -1.9305    0.0089 C.ar      1 <0>        -0.0710
     11 C11         5.1715   -2.3071    0.9335 C.ar      1 <0>        -0.0390
     12 C12         3.9833   -1.5884    1.0334 C.ar      1 <0>        -0.0358
     13 C13         2.9665   -1.9446    2.0840 C.3       1 <0>        -0.0956
     14 C14         2.9208   -3.4544    2.2994 C.3       1 <0>        -0.0695
     15 C15         4.3040   -3.9978    2.5337 C.ar      1 <0>        -0.1275
     16 C16         5.3994   -3.4600    1.8426 C.ar      1 <0>         0.2114
     17 N1          6.6179   -3.9370    1.9984 N.ar      1 <0>        -0.4870
     18 C17         6.8929   -4.9509    2.8181 C.ar      1 <0>         0.1222
     19 C18         8.2074   -5.4369    2.9562 C.ar      1 <0>        -0.0707
     20 C19         8.4606   -6.4661    3.8086 C.ar      1 <0>        -0.1351
     21 C20         7.4363   -7.0541    4.5526 C.ar      1 <0>         0.0805
     22 C21         6.1488   -6.6121    4.4396 C.ar      1 <0>        -0.1019
     23 C22         5.8549   -5.5577    3.5704 C.ar      1 <0>        -0.0693
     24 C23         4.4975   -5.0445    3.4235 C.ar      1 <0>        -0.0361
     25 C24         3.3713   -5.6312    4.1758 C.2       1 <0>         0.5320
     26 O1          2.7233   -6.5478    3.6905 O.co2     1 <0>        -0.6691
     27 O2          3.0863   -5.2008    5.2844 O.co2     1 <0>        -0.6694
     28 F1          7.7215   -8.0722    5.3935 F         1 <0>        -0.1416
     29 H1         -0.8285    2.1945    0.4496 H         1 <0>         0.1202
     30 H2          1.3151    3.4019    0.4373 H         1 <0>         0.1213
     31 H3          3.4325    2.1559    0.3096 H         1 <0>         0.1226
     32 H4          1.2416   -1.5243    0.1991 H         1 <0>         0.1304
     33 H5         -0.8665   -0.2623    0.3264 H         1 <0>         0.1244
     34 H6          4.5415    0.6627   -1.4373 H         1 <0>         0.1232
     35 H7          6.6609   -0.5755   -1.5590 H         1 <0>         0.1260
     36 H8          7.0731   -2.4724   -0.0470 H         1 <0>         0.1348
     37 H9          3.2325   -1.4561    3.0214 H         1 <0>         0.0818
     38 H10         1.9838   -1.5975    1.7651 H         1 <0>         0.0944
     39 H11         2.2965   -3.6752    3.1652 H         1 <0>         0.0913
     40 H12         2.4924   -3.9304    1.4174 H         1 <0>         0.0779
     41 H13         9.0115   -4.9939    2.3875 H         1 <0>         0.1413
     42 H14         9.4708   -6.8341    3.9119 H         1 <0>         0.1378
     43 H15         5.3629   -7.0744    5.0183 H         1 <0>         0.1438
@<TRIPOS>BOND
     1    1    6 ar
     2    1    2 ar
     3    1   29 1
     4    2    3 ar
     5    2   30 1
     6    3    4 ar
     7    3   31 1
     8    4    5 ar
     9    4    7 1
    10    5    6 ar
    11    5   32 1
    12    6   33 1
    13    7   12 ar
    14    7    8 ar
    15    8    9 ar
    16    8   34 1
    17    9   10 ar
    18    9   35 1
    19   10   11 ar
    20   10   36 1
    21   11   16 1
    22   11   12 ar
    23   12   13 1
    24   13   14 1
    25   13   37 1
    26   13   38 1
    27   14   15 1
    28   14   39 1
    29   14   40 1
    30   15   24 ar
    31   15   16 ar
    32   16   17 ar
    33   17   18 ar
    34   18   23 ar
    35   18   19 ar
    36   19   20 ar
    37   19   41 1
    38   20   21 ar
    39   20   42 1
    40   21   22 ar
    41   21   28 1
    42   22   23 ar
    43   22   43 1
    44   23   24 ar
    45   24   25 1
    46   25   26 2
    47   25   27 1
@<TRIPOS>MOLECULE
CHEMBL289555
   38    41     0     0     0
SMALL
USER_CHARGES

@<TRIPOS>ATOM
      1 C1         -0.0044    1.5029    0.0090 C.3       1 <0>        -0.1103
      2 C2          0.0087   -0.0040    0.0014 C.ar      1 <0>        -0.1300
      3 C3         -0.0985   -0.7001   -1.1962 C.ar      1 <0>        -0.0365
      4 C4         -0.0781   -2.1622   -1.1267 C.ar      1 <0>        -0.0684
      5 C5         -0.1794   -2.9495   -2.2775 C.ar      1 <0>        -0.1027
      6 C6         -0.1557   -4.3108   -2.1677 C.ar      1 <0>         0.0813
      7 C7         -0.0319   -4.9246   -0.9202 C.ar      1 <0>        -0.1356
      8 C8          0.0688   -4.1868    0.2181 C.ar      1 <0>        -0.0701
      9 C9          0.0485   -2.7808    0.1434 C.ar      1 <0>         0.1191
     10 N1          0.1459   -2.0329    1.2425 N.ar      1 <0>        -0.4836
     11 C10         0.1351   -0.7171    1.2030 C.ar      1 <0>         0.2050
     12 C11         0.2544    0.0375    2.4734 C.ar      1 <0>        -0.0338
     13 C12         0.9433    1.2617    2.4944 C.ar      1 <0>        -0.0963
     14 C13         1.0666    1.9720    3.6449 C.ar      1 <0>        -0.1159
     15 C14         0.5004    1.4841    4.8366 C.ar      1 <0>        -0.0451
     16 C15         0.6137    2.2006    6.0399 C.ar      1 <0>        -0.1081
     17 C16         0.0548    1.7027    7.1769 C.ar      1 <0>        -0.1184
     18 C17        -0.6308    0.4894    7.1681 C.ar      1 <0>        -0.1252
     19 C18        -0.7612   -0.2327    6.0220 C.ar      1 <0>        -0.0982
     20 C19        -0.1971    0.2497    4.8275 C.ar      1 <0>        -0.0566
     21 C20        -0.3182   -0.4666    3.6267 C.ar      1 <0>        -0.0649
     22 F1         -0.2536   -5.0720   -3.2795 F         1 <0>        -0.1415
     23 C21        -0.2283    0.0057   -2.4858 C.2       1 <0>         0.5325
     24 O1          0.7655    0.2326   -3.1614 O.co2     1 <0>        -0.6697
     25 O2         -1.3296    0.3637   -2.8788 O.co2     1 <0>        -0.6696
     26 H1          1.0185    1.8754   -0.0469 H         1 <0>         0.0728
     27 H2         -0.5705    1.8657   -0.8489 H         1 <0>         0.0783
     28 H3         -0.4705    1.8576    0.9282 H         1 <0>         0.0713
     29 H4         -0.2763   -2.4843   -3.2473 H         1 <0>         0.1440
     30 H5         -0.0162   -6.0027   -0.8577 H         1 <0>         0.1379
     31 H6          0.1636   -4.6775    1.1755 H         1 <0>         0.1414
     32 H7          1.3810    1.6425    1.5834 H         1 <0>         0.1411
     33 H8          1.5995    2.9114    3.6452 H         1 <0>         0.1299
     34 H9          1.1423    3.1422    6.0627 H         1 <0>         0.1253
     35 H10         0.1443    2.2562    8.0999 H         1 <0>         0.1198
     36 H11        -1.0646    0.1166    8.0842 H         1 <0>         0.1203
     37 H12        -1.2949   -1.1716    6.0298 H         1 <0>         0.1263
     38 H13        -0.8506   -1.4060    3.6045 H         1 <0>         0.1347
@<TRIPOS>BOND
     1    1    2 1
     2    1   26 1
     3    1   27 1
     4    1   28 1
     5    2   11 ar
     6    2    3 ar
     7    3    4 ar
     8    3   23 1
     9    4    9 ar
    10    4    5 ar
    11    5    6 ar
    12    5   29 1
    13    6    7 ar
    14    6   22 1
    15    7    8 ar
    16    7   30 1
    17    8    9 ar
    18    8   31 1
    19    9   10 ar
    20   10   11 ar
    21   11   12 1
    22   12   21 ar
    23   12   13 ar
    24   13   14 ar
    25   13   32 1
    26   14   15 ar
    27   14   33 1
    28   15   20 ar
    29   15   16 ar
    30   16   17 ar
    31   16   34 1
    32   17   18 ar
    33   17   35 1
    34   18   19 ar
    35   18   36 1
    36   19   20 ar
    37   19   37 1
    38   20   21 ar
    39   21   38 1
    40   23   24 2
    41   23   25 1
@<TRIPOS>MOLECULE
CHEMBL141074
   35    37     0     0     0
SMALL
USER_CHARGES

@<TRIPOS>ATOM
      1 C1         -0.0206    1.3741   -0.1838 C.2       1 <0>        -0.1432
      2 C2          1.1772    2.0547   -0.2195 C.2       1 <0>        -0.1766
      3 C3          2.3398    1.3493   -0.0595 C.2       1 <0>        -0.0667
      4 S1          1.7332   -0.3171    0.1468 S.3       1 <0>         0.0352
      5 C4         -0.0123    0.0303    0.0080 C.2       1 <0>        -0.1961
      6 C5          3.7342    1.8398   -0.0580 C.ar      1 <0>        -0.0599
      7 C6          3.9976    3.1998   -0.2324 C.ar      1 <0>        -0.0720
      8 C7          5.2988    3.6539   -0.2306 C.ar      1 <0>        -0.1157
      9 C8          6.3485    2.7595   -0.0558 C.ar      1 <0>         0.1959
     10 C9          6.0897    1.4047    0.1181 C.ar      1 <0>        -0.1633
     11 C10         4.7904    0.9450    0.1235 C.ar      1 <0>        -0.0808
     12 N1          7.6672    3.2233   -0.0554 N.pl3     1 <0>        -0.6753
     13 C11         7.9558    4.4527    0.4511 C.2       1 <0>         0.5453
     14 O1          6.9931    5.1754    1.0534 O.3       1 <0>        -0.6145
     15 C12         9.2524    4.9652    0.3461 C.2       1 <0>        -0.4411
     16 C13         9.5513    6.2384    0.8706 C.2       1 <0>         0.4454
     17 C14        10.9488    6.7908    0.7574 C.3       1 <0>        -0.1989
     18 C15        11.0960    8.2849    0.4625 C.3       1 <0>        -0.1604
     19 C16        11.4226    7.7443    1.8561 C.3       1 <0>        -0.1613
     20 O2          8.6823    6.8908    1.4142 O.2       1 <0>        -0.5008
     21 C17        10.2766    4.1963   -0.2946 C.1       1 <0>         0.3014
     22 N2         11.0890    3.5864   -0.8028 N.1       1 <0>        -0.5419
     23 H1         -0.9543    1.9038   -0.3025 H         1 <0>         0.1310
     24 H2          1.1985    3.1238   -0.3710 H         1 <0>         0.1344
     25 H3         -0.8469   -0.6528    0.0626 H         1 <0>         0.1821
     26 H4          3.1825    3.8951   -0.3690 H         1 <0>         0.1241
     27 H5          5.5032    4.7058   -0.3654 H         1 <0>         0.1487
     28 H6          6.9074    0.7123    0.2533 H         1 <0>         0.1248
     29 H7          4.5898   -0.1070    0.2631 H         1 <0>         0.1202
     30 H8          8.3765    2.6686   -0.4162 H         1 <0>         0.4022
     31 H9         11.6870    6.1167    0.3232 H         1 <0>         0.1026
     32 H10        11.9312    8.5940   -0.1659 H         1 <0>         0.0891
     33 H11        10.1821    8.8683    0.3505 H         1 <0>         0.0980
     34 H12        10.7236    7.9720    2.6608 H         1 <0>         0.0995
     35 H13        12.4727    7.6978    2.1444 H         1 <0>         0.0888
@<TRIPOS>BOND
     1    1    5 2
     2    1    2 1
     3    1   23 1
     4    2    3 2
     5    2   24 1
     6    3    4 1
     7    3    6 1
     8    4    5 1
     9    5   25 1
    10    6   11 ar
    11    6    7 ar
    12    7    8 ar
    13    7   26 1
    14    8    9 ar
    15    8   27 1
    16    9   10 ar
    17    9   12 1
    18   10   11 ar
    19   10   28 1
    20   11   29 1
    21   12   13 1
    22   12   30 1
    23   13   14 1
    24   13   15 2
    25   15   21 1
    26   15   16 1
    27   16   20 2
    28   16   17 1
    29   17   19 1
    30   17   18 1
    31   17   31 1
    32   18   19 1
    33   18   32 1
    34   18   33 1
    35   19   34 1
    36   19   35 1
    37   21   22 3
@<TRIPOS>MOLECULE
CHEMBL141074__1
   36    38     0     0     0
SMALL
NO_CHARGES

@<TRIPOS>ATOM
      1 C1          0.4773   -0.0158    0.5392 C.2       1 <0>        -0.1541
      2 C2          1.8214    0.2558    0.6765 C.2       1 <0>        -0.1503
      3 C3          2.3468    1.3308    0.0108 C.2       1 <0>        -0.1057
      4 S1          0.9121    1.9784   -0.8318 S.3       1 <0>         0.0527
      5 C4         -0.2826    0.7870   -0.2485 C.2       1 <0>        -0.1744
      6 C5          3.7394    1.8262   -0.0059 C.ar      1 <0>        -0.0177
      7 C6          4.7262    1.1644    0.7270 C.ar      1 <0>        -0.0766
      8 C7          6.0238    1.6287    0.7089 C.ar      1 <0>        -0.1130
      9 C8          6.3503    2.7548   -0.0375 C.ar      1 <0>         0.1488
     10 C9          5.3702    3.4163   -0.7679 C.ar      1 <0>        -0.1344
     11 C10         4.0718    2.9536   -0.7591 C.ar      1 <0>        -0.0851
     12 N1          7.6682    3.2236   -0.0533 N.am      1 <0>        -0.6674
     13 C11         8.6941    2.3533    0.0283 C.2       1 <0>         0.5260
     14 O1          8.4789    1.1597    0.0191 O.2       1 <0>        -0.4676
     15 C12        10.1084    2.8633    0.1312 C.3       1 <0>        -0.0512
     16 C13        11.0588    1.6963    0.2089 C.2       1 <0>         0.3954
     17 C14        12.3584    1.8317    0.9597 C.3       1 <0>        -0.2232
     18 C15        12.8299    0.6283    1.7784 C.3       1 <0>        -0.1424
     19 C16        13.5442    0.9946    0.4759 C.3       1 <0>        -0.1478
     20 O2         10.7789    0.6528   -0.3304 O.2       1 <0>        -0.3892
     21 C17        10.4246    3.6755   -1.0551 C.1       1 <0>         0.2014
     22 N2         10.6687    4.3022   -1.9706 N.1       1 <0>        -0.3701
     23 H1          0.0351   -0.8594    1.0484 H         1 <0>         0.1365
     24 H2          2.4481   -0.3671    1.2975 H         1 <0>         0.1355
     25 H3         -1.3384    0.7219   -0.4664 H         1 <0>         0.1877
     26 H4          4.4731    0.2897    1.3078 H         1 <0>         0.1326
     27 H5          6.7877    1.1171    1.2756 H         1 <0>         0.1411
     28 H6          5.6271    4.2913   -1.3466 H         1 <0>         0.1324
     29 H7          3.3116    3.4656   -1.3305 H         1 <0>         0.1301
     30 H8          7.8437    4.1751   -0.1231 H         1 <0>         0.4142
     31 H9         12.5715    2.8247    1.3554 H         1 <0>         0.1321
     32 H10        13.3533    0.8294    2.7132 H         1 <0>         0.1104
     33 H11        12.2001   -0.2613    1.7740 H         1 <0>         0.1067
     34 H12        13.3843    0.3460   -0.3854 H         1 <0>         0.1057
     35 H13        14.5375    1.4367    0.5537 H         1 <0>         0.1095
     36 H14        10.2099    3.4748    1.0277 H         1 <0>         0.1711
@<TRIPOS>BOND
     1    1    5 2
     2    1    2 1
     3    1   23 1
     4    2    3 2
     5    2   24 1
     6    3    4 1
     7    3    6 1
     8    4    5 1
     9    5   25 1
    10    6   11 ar
    11    6    7 ar
    12    7    8 ar
    13    7   26 1
    14    8    9 ar
    15    8   27 1
    16    9   10 ar
    17    9   12 1
    18   10   11 ar
    19   10   28 1
    20   11   29 1
    21   12   13 am
    22   12   30 1
    23   13   14 2
    24   13   15 1
    25   15   21 1
    26   15   36 1
    27   15   16 1
    28   16   20 2
    29   16   17 1
    30   17   19 1
    31   17   18 1
    32   17   31 1
    33   18   19 1
    34   18   32 1
    35   18   33 1
    36   19   34 1
    37   19   35 1
    38   21   22 3
@<TRIPOS>MOLECULE
CHEMBL193365
   43    45     0     0     0
SMALL
USER_CHARGES

@<TRIPOS>ATOM
      1 C1         -0.0592    1.3384    0.0902 C.ar      1 <0>        -0.0686
      2 C2          1.1191    2.0608    0.1087 C.ar      1 <0>        -0.1539
      3 C3          2.3360    1.4011    0.0817 C.ar      1 <0>         0.1396
      4 C4          2.3718    0.0177    0.0362 C.ar      1 <0>        -0.1218
      5 C5          1.1919   -0.7034    0.0178 C.ar      1 <0>         0.0129
      6 C6         -0.0236   -0.0424    0.0447 C.ar      1 <0>        -0.1261
      7 Cl1         1.2356   -2.4380   -0.0392 Cl        1 <0>        -0.0448
      8 C7          3.6957   -0.7016    0.0064 C.3       1 <0>         0.0967
      9 O1          4.1205   -0.9731    1.3434 O.3       1 <0>        -0.2941
     10 C8          5.3057   -1.6225    1.4948 C.ar      1 <0>         0.1114
     11 C9          6.0452   -1.9846    0.3784 C.ar      1 <0>        -0.1765
     12 C10         7.2487   -2.6440    0.5309 C.ar      1 <0>        -0.0966
     13 C11         7.7193   -2.9454    1.8028 C.ar      1 <0>         0.1513
     14 C12         6.9789   -2.5829    2.9205 C.ar      1 <0>        -0.0815
     15 C13         5.7776   -1.9176    2.7666 C.ar      1 <0>        -0.0443
     16 Cl2         4.8552   -1.4572    4.1633 Cl        1 <0>        -0.0615
     17 N1          8.9382   -3.6143    1.9576 N.am      1 <0>        -0.6578
     18 C14         9.7399   -3.3212    3.0006 C.2       1 <0>         0.6102
     19 O2          9.3709   -2.5316    3.8477 O.2       1 <0>        -0.5259
     20 C15        11.0678   -3.9599    3.1142 C.2       1 <0>        -0.1970
     21 C16        12.1786   -3.5260    2.5028 C.2       1 <0>        -0.1044
     22 C17        13.3519   -4.4164    2.8410 C.3       1 <0>        -0.0867
     23 C18        12.9005   -5.2134    4.0857 C.3       1 <0>        -0.1231
     24 C19        11.3639   -5.1896    3.9411 C.3       1 <0>        -0.0695
     25 C20        12.2464   -2.3457    1.6230 C.2       1 <0>         0.5169
     26 O3         11.2247   -1.7392    1.3336 O.co2     1 <0>        -0.6692
     27 O4         13.3245   -1.9726    1.1824 O.co2     1 <0>        -0.6833
     28 F1          3.4879    2.1068    0.0994 F         1 <0>        -0.1226
     29 H1         -1.0083    1.8532    0.1158 H         1 <0>         0.1453
     30 H2          1.0905    3.1398    0.1438 H         1 <0>         0.1457
     31 H3         -0.9448   -0.6059    0.0303 H         1 <0>         0.1435
     32 H4          3.5872   -1.6397   -0.5380 H         1 <0>         0.0830
     33 H5          4.4376   -0.0767   -0.4908 H         1 <0>         0.0799
     34 H6          5.6793   -1.7511   -0.6105 H         1 <0>         0.1363
     35 H7          7.8240   -2.9257   -0.3386 H         1 <0>         0.1362
     36 H8          7.3438   -2.8172    3.9096 H         1 <0>         0.1552
     37 H9          9.2063   -4.2890    1.3144 H         1 <0>         0.4097
     38 H10        13.5646   -5.0937    2.0139 H         1 <0>         0.0773
     39 H11        14.2299   -3.8142    3.0744 H         1 <0>         0.0785
     40 H12        13.2819   -6.2340    4.0543 H         1 <0>         0.0712
     41 H13        13.2092   -4.7116    5.0028 H         1 <0>         0.0689
     42 H14        10.8909   -5.1111    4.9200 H         1 <0>         0.0683
     43 H15        11.0207   -6.0857    3.4241 H         1 <0>         0.0712
@<TRIPOS>BOND
     1    1    6 ar
     2    1    2 ar
     3    1   29 1
     4    2    3 ar
     5    2   30 1
     6    3    4 ar
     7    3   28 1
     8    4    5 ar
     9    4    8 1
    10    5    6 ar
    11    5    7 1
    12    6   31 1
    13    8    9 1
    14    8   32 1
    15    8   33 1
    16    9   10 1
    17   10   15 ar
    18   10   11 ar
    19   11   12 ar
    20   11   34 1
    21   12   13 ar
    22   12   35 1
    23   13   14 ar
    24   13   17 1
    25   14   15 ar
    26   14   36 1
    27   15   16 1
    28   17   18 am
    29   17   37 1
    30   18   19 2
    31   18   20 1
    32   20   24 1
    33   20   21 2
    34   21   22 1
    35   21   25 1
    36   22   23 1
    37   22   38 1
    38   22   39 1
    39   23   24 1
    40   23   40 1
    41   23   41 1
    42   24   42 1
    43   24   43 1
    44   25   26 2
    45   25   27 1
@<TRIPOS>MOLECULE
CHEMBL104167
   45    49     0     0     0
SMALL
USER_CHARGES

@<TRIPOS>ATOM
      1 C1          0.5514    1.6247    0.1484 C.3       1 <0>        -0.1143
      2 C2          0.4973    0.1191    0.1117 C.ar      1 <0>        -0.0933
      3 C3          0.5035   -0.5425   -1.1034 C.ar      1 <0>        -0.1135
      4 C4          0.4536   -1.9242   -1.1449 C.ar      1 <0>        -0.1208
      5 C5          0.3971   -2.6509    0.0272 C.ar      1 <0>        -0.1070
      6 C6          0.3910   -1.9897    1.2543 C.ar      1 <0>        -0.0406
      7 C7          0.4472   -0.5970    1.2900 C.ar      1 <0>        -0.0795
      8 C8          0.3305   -2.7647    2.5168 C.ar      1 <0>         0.1717
      9 C9          0.3914   -4.1574    2.4712 C.ar      1 <0>        -0.1743
     10 C10         0.3217   -4.8706    3.6534 C.ar      1 <0>        -0.0304
     11 C11         0.1872   -4.1596    4.8462 C.ar      1 <0>        -0.0897
     12 C12         0.1603   -2.7654    4.8212 C.ar      1 <0>         0.1690
     13 N1          0.2246   -2.1226    3.6728 N.ar      1 <0>        -0.4770
     14 C13         0.0971   -1.9915    6.1121 C.3       1 <0>        -0.0679
     15 C14        -0.7799   -2.7136    7.1299 C.3       1 <0>        -0.0705
     16 C15        -0.3589   -4.1512    7.2685 C.ar      1 <0>        -0.1292
     17 C16         0.0922   -4.8678    6.1464 C.ar      1 <0>         0.2136
     18 N2          0.4340   -6.1384    6.2263 N.ar      1 <0>        -0.4863
     19 C17         0.3946   -6.8227    7.3692 C.ar      1 <0>         0.1220
     20 C18         0.7625   -8.1813    7.4152 C.ar      1 <0>        -0.0703
     21 C19         0.7222   -8.8520    8.5978 C.ar      1 <0>        -0.1348
     22 C20         0.3192   -8.2164    9.7734 C.ar      1 <0>         0.0825
     23 C21        -0.0489   -6.9010    9.7650 C.ar      1 <0>        -0.1024
     24 C22        -0.0207   -6.1842    8.5655 C.ar      1 <0>        -0.0675
     25 C23        -0.4193   -4.7765    8.5051 C.ar      1 <0>        -0.0330
     26 C24        -0.8666   -4.0524    9.7110 C.2       1 <0>         0.5318
     27 O1         -2.0545   -4.0205    9.9995 O.co2     1 <0>        -0.6678
     28 O2         -0.0493   -3.4845   10.4215 O.co2     1 <0>        -0.6680
     29 F1          0.2924   -8.9101   10.9324 F         1 <0>        -0.1409
     30 H1          1.5913    1.9502    0.1782 H         1 <0>         0.0700
     31 H2          0.0700    2.0274   -0.7427 H         1 <0>         0.0652
     32 H3          0.0323    1.9854    1.0364 H         1 <0>         0.0684
     33 H4          0.5473    0.0220   -2.0230 H         1 <0>         0.1212
     34 H5          0.4584   -2.4353   -2.0962 H         1 <0>         0.1246
     35 H6          0.3574   -3.7296   -0.0064 H         1 <0>         0.1266
     36 H7          0.4468   -0.0796    2.2380 H         1 <0>         0.1362
     37 H8          0.4920   -4.6709    1.5264 H         1 <0>         0.1389
     38 H9          0.3696   -5.9495    3.6535 H         1 <0>         0.1478
     39 H10         1.1036   -1.8850    6.5167 H         1 <0>         0.0910
     40 H11        -0.3179   -1.0025    5.9180 H         1 <0>         0.0953
     41 H12        -0.6903   -2.2184    8.0968 H         1 <0>         0.0978
     42 H13        -1.8185   -2.6736    6.8016 H         1 <0>         0.0808
     43 H14         1.0751   -8.6889    6.5146 H         1 <0>         0.1416
     44 H15         1.0063   -9.8936    8.6277 H         1 <0>         0.1384
     45 H16        -0.3600   -6.4180   10.6794 H         1 <0>         0.1448
@<TRIPOS>BOND
     1    1    2 1
     2    1   30 1
     3    1   31 1
     4    1   32 1
     5    2    7 ar
     6    2    3 ar
     7    3    4 ar
     8    3   33 1
     9    4    5 ar
    10    4   34 1
    11    5    6 ar
    12    5   35 1
    13    6    7 ar
    14    6    8 1
    15    7   36 1
    16    8   13 ar
    17    8    9 ar
    18    9   10 ar
    19    9   37 1
    20   10   11 ar
    21   10   38 1
    22   11   17 1
    23   11   12 ar
    24   12   13 ar
    25   12   14 1
    26   14   15 1
    27   14   39 1
    28   14   40 1
    29   15   16 1
    30   15   41 1
    31   15   42 1
    32   16   25 ar
    33   16   17 ar
    34   17   18 ar
    35   18   19 ar
    36   19   24 ar
    37   19   20 ar
    38   20   21 ar
    39   20   43 1
    40   21   22 ar
    41   21   44 1
    42   22   23 ar
    43   22   29 1
    44   23   24 ar
    45   23   45 1
    46   24   25 ar
    47   25   26 1
    48   26   27 2
    49   26   28 1
@<TRIPOS>MOLECULE
CHEMBL194776
   41    43     0     0     0
SMALL
USER_CHARGES

@<TRIPOS>ATOM
      1 C1          0.0194    1.4727    0.0673 C.ar      1 <0>        -0.0703
      2 C2          1.2107    2.1737    0.0802 C.ar      1 <0>        -0.1570
      3 C3          2.4154    1.4920    0.0553 C.ar      1 <0>         0.1399
      4 C4          2.4261    0.1080    0.0175 C.ar      1 <0>        -0.1161
      5 C5          1.2334   -0.5918    0.0046 C.ar      1 <0>         0.0131
      6 C6          0.0301    0.0912    0.0295 C.ar      1 <0>        -0.1281
      7 Cl1         1.2456   -2.3272   -0.0428 Cl        1 <0>        -0.0401
      8 C7          3.7367   -0.6354   -0.0102 C.3       1 <0>         0.0996
      9 O1          4.1585   -0.9071    1.3278 O.3       1 <0>        -0.3041
     10 C8          5.3320   -1.5770    1.4812 C.ar      1 <0>         0.1159
     11 C9          5.3379   -2.9641    1.5284 C.ar      1 <0>        -0.0812
     12 C10         6.5297   -3.6452    1.6842 C.ar      1 <0>        -0.0892
     13 C11         7.7224   -2.9415    1.7931 C.ar      1 <0>         0.1922
     14 C12         7.7159   -1.5533    1.7453 C.ar      1 <0>        -0.0755
     15 C13         6.5240   -0.8735    1.5846 C.ar      1 <0>        -0.0838
     16 Br1         6.5157    1.0161    1.5122 Br        1 <0>        -0.0254
     17 N1          8.9295   -3.6306    1.9513 N.am      1 <0>        -0.6535
     18 C14        10.0559   -3.1558    1.3837 C.2       1 <0>         0.6172
     19 O2         10.0397   -2.0895    0.8005 O.2       1 <0>        -0.5165
     20 C15        11.3107   -3.9316    1.4703 C.2       1 <0>        -0.1801
     21 C16        11.5731   -4.8986    0.6071 C.2       1 <0>        -0.1144
     22 C17        12.8816   -5.6544    0.7548 C.3       1 <0>        -0.0051
     23 S1         13.8063   -4.5418    1.8995 S.3       1 <0>        -0.3147
     24 C18        12.3377   -3.6367    2.5489 C.3       1 <0>        -0.0088
     25 C19        10.6220   -5.2334   -0.4676 C.2       1 <0>         0.5196
     26 O3          9.5328   -4.6793   -0.5147 O.co2     1 <0>        -0.6557
     27 O4         10.9219   -6.0652   -1.3123 O.co2     1 <0>        -0.6701
     28 Br2         3.7142   -3.9219    1.3802 Br        1 <0>        -0.0264
     29 F1          3.5799    2.1768    0.0674 F         1 <0>        -0.1207
     30 H1         -0.9201    2.0047    0.0913 H         1 <0>         0.1434
     31 H2          1.2016    3.2533    0.1094 H         1 <0>         0.1435
     32 H3         -0.9012   -0.4556    0.0194 H         1 <0>         0.1419
     33 H4          3.6105   -1.5744   -0.5492 H         1 <0>         0.0792
     34 H5          4.4891   -0.0268   -0.5119 H         1 <0>         0.0739
     35 H6          6.5341   -4.7245    1.7217 H         1 <0>         0.1472
     36 H7          8.6429   -1.0056    1.8302 H         1 <0>         0.1594
     37 H8          8.9558   -4.4501    2.4696 H         1 <0>         0.4114
     38 H9         12.7202   -6.6339    1.2049 H         1 <0>         0.1083
     39 H10        13.3931   -5.7443   -0.2035 H         1 <0>         0.1192
     40 H11        12.5352   -2.5672    2.6209 H         1 <0>         0.1096
     41 H12        12.0236   -4.0416    3.5110 H         1 <0>         0.1025
@<TRIPOS>BOND
     1    1    6 ar
     2    1    2 ar
     3    1   30 1
     4    2    3 ar
     5    2   31 1
     6    3    4 ar
     7    3   29 1
     8    4    5 ar
     9    4    8 1
    10    5    6 ar
    11    5    7 1
    12    6   32 1
    13    8    9 1
    14    8   33 1
    15    8   34 1
    16    9   10 1
    17   10   15 ar
    18   10   11 ar
    19   11   12 ar
    20   11   28 1
    21   12   13 ar
    22   12   35 1
    23   13   14 ar
    24   13   17 1
    25   14   15 ar
    26   14   36 1
    27   15   16 1
    28   17   18 am
    29   17   37 1
    30   18   19 2
    31   18   20 1
    32   20   24 1
    33   20   21 2
    34   21   22 1
    35   21   25 1
    36   22   23 1
    37   22   38 1
    38   22   39 1
    39   23   24 1
    40   24   40 1
    41   24   41 1
    42   25   26 2
    43   25   27 1
@<TRIPOS>MOLECULE
CHEMBL306784
   32    33     0     0     0
SMALL
USER_CHARGES

@<TRIPOS>ATOM
      1 C1          0.2489    2.6411    1.0316 C.3       1 <0>        -0.1376
      2 C2          0.2323    1.2135    0.4815 C.3       1 <0>        -0.0850
      3 C3          0.8687    0.2825    1.4812 C.2       1 <0>         0.2014
      4 C4          0.2534   -0.2698    2.5682 C.2       1 <0>        -0.3007
      5 C5          1.2525   -1.0994    3.2441 C.2       1 <0>         0.1085
      6 N1          2.3551   -1.0043    2.5613 N.2       1 <0>        -0.2924
      7 O1          2.1322   -0.1516    1.4560 O.3       1 <0>        -0.0731
      8 C6         -1.1458   -0.0689    2.9814 C.2       1 <0>         0.4101
      9 N2         -1.5919   -0.6062    4.1341 N.pl3     1 <0>        -0.5870
     10 C7         -2.9414   -0.4853    4.4867 C.ar      1 <0>         0.0778
     11 C8         -3.6275   -1.5806    4.9948 C.ar      1 <0>        -0.0769
     12 C9         -4.9584   -1.4604    5.3428 C.ar      1 <0>        -0.1200
     13 C10        -5.6100   -0.2460    5.1849 C.ar      1 <0>         0.1198
     14 C11        -4.9255    0.8485    4.6770 C.ar      1 <0>        -0.1836
     15 C12        -3.5930    0.7315    4.3339 C.ar      1 <0>        -0.0252
     16 O2         -6.9206   -0.1284    5.5278 O.3       1 <0>        -0.3095
     17 C13        -7.5283    1.1510    5.3389 C.3       1 <0>         0.6041
     18 F1         -7.4603    1.5046    3.9870 F         1 <0>        -0.1613
     19 F2         -8.8676    1.0948    5.7394 F         1 <0>        -0.1292
     20 F3         -6.8521    2.1063    6.1053 F         1 <0>        -0.1635
     21 S1         -2.2057    0.8473    1.9974 S.2       1 <0>        -0.5277
     22 H1          1.2789    2.9495    1.2108 H         1 <0>         0.0530
     23 H2         -0.2114    3.3144    0.3086 H         1 <0>         0.0783
     24 H3         -0.3089    2.6764    1.9674 H         1 <0>         0.0692
     25 H4         -0.7977    0.9051    0.3024 H         1 <0>         0.1486
     26 H5          0.7901    1.1782   -0.4542 H         1 <0>         0.0905
     27 H6          1.1022   -1.6807    4.1418 H         1 <0>         0.2092
     28 H7         -3.1204   -2.5262    5.1174 H         1 <0>         0.1421
     29 H8         -5.4922   -2.3122    5.7376 H         1 <0>         0.1472
     30 H9         -5.4336    1.7935    4.5541 H         1 <0>         0.1414
     31 H10        -3.0590    1.5849    3.9430 H         1 <0>         0.1582
     32 H11        -0.9779   -1.0767    4.7194 H         1 <0>         0.4134
@<TRIPOS>BOND
     1    1    2 1
     2    1   22 1
     3    1   23 1
     4    1   24 1
     5    2    3 1
     6    2   25 1
     7    2   26 1
     8    3    7 1
     9    3    4 2
    10    4    5 1
    11    4    8 1
    12    5    6 2
    13    5   27 1
    14    6    7 1
    15    8    9 1
    16    8   21 2
    17    9   10 1
    18    9   32 1
    19   10   15 ar
    20   10   11 ar
    21   11   12 ar
    22   11   28 1
    23   12   13 ar
    24   12   29 1
    25   13   14 ar
    26   13   16 1
    27   14   15 ar
    28   14   30 1
    29   15   31 1
    30   16   17 1
    31   17   18 1
    32   17   19 1
    33   17   20 1
@<TRIPOS>MOLECULE
CHEMBL39151
   41    44     0     0     0
SMALL
USER_CHARGES

@<TRIPOS>ATOM
      1 C1         -0.0034    1.5029    0.0089 C.3       1 <0>        -0.1110
      2 C2          0.0091   -0.0040    0.0014 C.ar      1 <0>        -0.1300
      3 C3         -0.0985   -0.7001   -1.1961 C.ar      1 <0>        -0.0359
      4 C4         -0.0786   -2.1622   -1.1267 C.ar      1 <0>        -0.0680
      5 C5         -0.1804   -2.9495   -2.2774 C.ar      1 <0>        -0.1029
      6 C6         -0.1572   -4.3108   -2.1677 C.ar      1 <0>         0.0819
      7 C7         -0.0334   -4.9247   -0.9203 C.ar      1 <0>        -0.1355
      8 C8          0.0674   -4.1870    0.2181 C.ar      1 <0>        -0.0701
      9 C9          0.0480   -2.7810    0.1435 C.ar      1 <0>         0.1188
     10 N1          0.1459   -2.0332    1.2426 N.ar      1 <0>        -0.4825
     11 C10         0.1355   -0.7172    1.2031 C.ar      1 <0>         0.2028
     12 C11         0.2558    0.0372    2.4731 C.ar      1 <0>        -0.0285
     13 C12         0.9396    1.2530    2.5003 C.ar      1 <0>        -0.0984
     14 C13         1.0513    1.9538    3.6806 C.ar      1 <0>        -0.1109
     15 C14         0.4809    1.4482    4.8486 C.ar      1 <0>        -0.0462
     16 C15        -0.2026    0.2329    4.8217 C.ar      1 <0>        -0.1139
     17 C16        -0.3195   -0.4656    3.6404 C.ar      1 <0>        -0.0768
     18 C17         0.6018    2.2029    6.1195 C.ar      1 <0>        -0.0863
     19 C18         0.0394    1.7039    7.2983 C.ar      1 <0>        -0.0710
     20 C19         0.1798    2.4462    8.4580 C.ar      1 <0>        -0.1691
     21 C20         0.8656    3.6467    8.4141 C.ar      1 <0>         0.0908
     22 N2          1.3851    4.0923    7.2867 N.ar      1 <0>        -0.4819
     23 C21         1.2826    3.4181    6.1595 C.ar      1 <0>         0.1064
     24 F1         -0.2556   -5.0719   -3.2795 F         1 <0>        -0.1413
     25 C22        -0.2283    0.0058   -2.4858 C.2       1 <0>         0.5323
     26 O1          0.7655    0.2326   -3.1613 O.co2     1 <0>        -0.6693
     27 O2         -1.3296    0.3637   -2.8788 O.co2     1 <0>        -0.6693
     28 H1          1.0199    1.8751   -0.0422 H         1 <0>         0.0730
     29 H2         -0.5654    1.8659   -0.8516 H         1 <0>         0.0785
     30 H3         -0.4736    1.8578    0.9260 H         1 <0>         0.0714
     31 H4         -0.2773   -2.4841   -3.2472 H         1 <0>         0.1442
     32 H5         -0.0177   -6.0028   -0.8579 H         1 <0>         0.1380
     33 H6          0.1618   -4.6778    1.1755 H         1 <0>         0.1414
     34 H7          1.3815    1.6444    1.5959 H         1 <0>         0.1438
     35 H8          1.5808    2.8948    3.7018 H         1 <0>         0.1296
     36 H9         -0.6438   -0.1586    5.7264 H         1 <0>         0.1254
     37 H10        -0.8527   -1.4045    3.6187 H         1 <0>         0.1324
     38 H11        -0.4913    0.7633    7.3038 H         1 <0>         0.1375
     39 H12        -0.2418    2.0921    9.3871 H         1 <0>         0.1360
     40 H13         0.9770    4.2284    9.3172 H         1 <0>         0.1549
     41 H14         1.7258    3.8132    5.2574 H         1 <0>         0.1595
@<TRIPOS>BOND
     1    1    2 1
     2    1   28 1
     3    1   29 1
     4    1   30 1
     5    2   11 ar
     6    2    3 ar
     7    3    4 ar
     8    3   25 1
     9    4    9 ar
    10    4    5 ar
    11    5    6 ar
    12    5   31 1
    13    6    7 ar
    14    6   24 1
    15    7    8 ar
    16    7   32 1
    17    8    9 ar
    18    8   33 1
    19    9   10 ar
    20   10   11 ar
    21   11   12 1
    22   12   17 ar
    23   12   13 ar
    24   13   14 ar
    25   13   34 1
    26   14   15 ar
    27   14   35 1
    28   15   16 ar
    29   15   18 1
    30   16   17 ar
    31   16   36 1
    32   17   37 1
    33   18   23 ar
    34   18   19 ar
    35   19   20 ar
    36   19   38 1
    37   20   21 ar
    38   20   39 1
    39   21   22 ar
    40   21   40 1
    41   22   23 ar
    42   23   41 1
    43   25   26 2
    44   25   27 1
@<TRIPOS>MOLECULE
CHEMBL49697
   48    52     0     0     0
SMALL
USER_CHARGES

@<TRIPOS>ATOM
      1 C1         -2.4922   -0.6314    1.2864 C.3       1 <0>        -0.0981
      2 C2         -1.2029   -1.0457    0.6252 C.ar      1 <0>        -0.1298
      3 C3         -1.2192   -1.9084   -0.4629 C.ar      1 <0>        -0.0328
      4 C4          0.0711   -2.2671   -1.0547 C.ar      1 <0>        -0.0664
      5 C5          0.1573   -3.1283   -2.1528 C.ar      1 <0>        -0.1027
      6 C6          1.3817   -3.4361   -2.6739 C.ar      1 <0>         0.0846
      7 C7          2.5464   -2.9010   -2.1228 C.ar      1 <0>        -0.1350
      8 C8          2.4952   -2.0601   -1.0542 C.ar      1 <0>        -0.0683
      9 C9          1.2512   -1.7210   -0.4915 C.ar      1 <0>         0.1261
     10 N1          1.1710   -0.8975    0.5567 N.ar      1 <0>        -0.4940
     11 C10         0.0231   -0.5593    1.0994 C.ar      1 <0>         0.4060
     12 N2          0.0250    0.3073    2.1845 N.pl3     1 <0>        -0.5721
     13 C11        -0.1115    1.7636    2.0964 C.3       1 <0>         0.1277
     14 C12        -0.0504    2.2618    3.5497 C.3       1 <0>        -0.0788
     15 C13         0.1216    1.0063    4.3744 C.ar      1 <0>        -0.1430
     16 C14         0.1511   -0.0826    3.5200 C.ar      1 <0>         0.2138
     17 C15         0.2980   -1.3642    4.0573 C.ar      1 <0>        -0.1595
     18 C16         0.4077   -1.5445    5.4205 C.ar      1 <0>        -0.0741
     19 C17         0.3738   -0.4593    6.2730 C.ar      1 <0>        -0.1521
     20 C18         0.2376    0.8256    5.7501 C.ar      1 <0>        -0.0047
     21 C19         0.1995    1.9976    6.6592 C.ar      1 <0>        -0.0698
     22 C20         1.3249    2.3409    7.4054 C.ar      1 <0>        -0.0775
     23 C21         1.2841    3.4318    8.2495 C.ar      1 <0>        -0.1316
     24 C22         0.1288    4.1855    8.3567 C.ar      1 <0>        -0.0936
     25 C23        -0.9922    3.8510    7.6199 C.ar      1 <0>        -0.1559
     26 C24        -0.9618    2.7638    6.7659 C.ar      1 <0>         0.1121
     27 F1         -2.0554    2.4407    6.0415 F         1 <0>        -0.1305
     28 F2          1.4660   -4.2685   -3.7347 F         1 <0>        -0.1405
     29 C25        -2.4859   -2.4425   -1.0008 C.2       1 <0>         0.5332
     30 O1         -3.0753   -1.8414   -1.8877 O.co2     1 <0>        -0.6683
     31 O2         -2.9459   -3.4861   -0.5594 O.co2     1 <0>        -0.6680
     32 H1         -2.8495    0.2951    0.8370 H         1 <0>         0.0679
     33 H2         -3.2388   -1.4136    1.1488 H         1 <0>         0.0766
     34 H3         -2.3207   -0.4761    2.3515 H         1 <0>         0.0642
     35 H4         -0.7387   -3.5477   -2.5861 H         1 <0>         0.1453
     36 H5          3.5039   -3.1586   -2.5510 H         1 <0>         0.1389
     37 H6          3.4062   -1.6545   -0.6395 H         1 <0>         0.1414
     38 H7          0.7094    2.1860    1.5169 H         1 <0>         0.0710
     39 H8         -1.0684    2.0273    1.6460 H         1 <0>         0.0740
     40 H9          0.8016    2.9275    3.6881 H         1 <0>         0.0835
     41 H10        -0.9776    2.7686    3.8173 H         1 <0>         0.0865
     42 H11         0.3254   -2.2206    3.3999 H         1 <0>         0.1170
     43 H12         0.5204   -2.5402    5.8231 H         1 <0>         0.1259
     44 H13         0.4597   -0.6045    7.3398 H         1 <0>         0.1225
     45 H14         2.2277    1.7538    7.3236 H         1 <0>         0.1336
     46 H15         2.1563    3.6979    8.8283 H         1 <0>         0.1293
     47 H16         0.1024    5.0383    9.0188 H         1 <0>         0.1307
     48 H17        -1.8915    4.4427    7.7077 H         1 <0>         0.1351
@<TRIPOS>BOND
     1    1    2 1
     2    1   32 1
     3    1   33 1
     4    1   34 1
     5    2   11 ar
     6    2    3 ar
     7    3    4 ar
     8    3   29 1
     9    4    9 ar
    10    4    5 ar
    11    5    6 ar
    12    5   35 1
    13    6    7 ar
    14    6   28 1
    15    7    8 ar
    16    7   36 1
    17    8    9 ar
    18    8   37 1
    19    9   10 ar
    20   10   11 ar
    21   11   12 1
    22   12   16 1
    23   12   13 1
    24   13   14 1
    25   13   38 1
    26   13   39 1
    27   14   15 1
    28   14   40 1
    29   14   41 1
    30   15   20 ar
    31   15   16 ar
    32   16   17 ar
    33   17   18 ar
    34   17   42 1
    35   18   19 ar
    36   18   43 1
    37   19   20 ar
    38   19   44 1
    39   20   21 1
    40   21   26 ar
    41   21   22 ar
    42   22   23 ar
    43   22   45 1
    44   23   24 ar
    45   23   46 1
    46   24   25 ar
    47   24   47 1
    48   25   26 ar
    49   25   48 1
    50   26   27 1
    51   29   30 2
    52   29   31 1
@<TRIPOS>MOLECULE
CHEMBL49697__1
   49    53     0     0     0
SMALL
USER_CHARGES

@<TRIPOS>ATOM
      1 C1         -2.4902   -0.6447    1.2985 C.3       1 <0>        -0.1078
      2 C2         -1.2019   -1.0520    0.6310 C.ar      1 <0>        -0.1162
      3 C3         -1.2196   -1.9081   -0.4624 C.ar      1 <0>         0.0724
      4 C4          0.0697   -2.2601   -1.0602 C.ar      1 <0>        -0.0483
      5 C5          0.1545   -3.1144   -2.1638 C.ar      1 <0>        -0.0787
      6 C6          1.3781   -3.4162   -2.6905 C.ar      1 <0>         0.1156
      7 C7          2.5433   -2.8818   -2.1396 C.ar      1 <0>        -0.0762
      8 C8          2.4933   -2.0476   -1.0657 C.ar      1 <0>        -0.1140
      9 C9          1.2503   -1.7148   -0.4973 C.ar      1 <0>         0.1268
     10 N1          1.1714   -0.8979    0.5562 N.ar      1 <0>        -0.4789
     11 C10         0.0243   -0.5656    1.1044 C.ar      1 <0>         0.4765
     12 N2          0.0275    0.2943    2.1948 N.pl3     1 <0>        -0.6071
     13 C11        -0.1125    1.7508    2.1160 C.3       1 <0>         0.1236
     14 C12        -0.0482    2.2403    3.5721 C.3       1 <0>        -0.0849
     15 C13         0.1292    0.9801    4.3886 C.ar      1 <0>        -0.1141
     16 C14         0.1586   -0.1034    3.5275 C.ar      1 <0>         0.1649
     17 C15         0.3100   -1.3880    4.0565 C.ar      1 <0>        -0.1521
     18 C16         0.4243   -1.5763    5.4183 C.ar      1 <0>        -0.0734
     19 C17         0.3905   -0.4964    6.2775 C.ar      1 <0>        -0.1219
     20 C18         0.2497    0.7913    5.7628 C.ar      1 <0>         0.0039
     21 C19         0.2117    1.9576    6.6792 C.ar      1 <0>        -0.0880
     22 C20         1.3386    2.2989    7.4241 C.ar      1 <0>        -0.0749
     23 C21         1.2979    3.3846    8.2750 C.ar      1 <0>        -0.1283
     24 C22         0.1412    4.1349    8.3902 C.ar      1 <0>        -0.0843
     25 C23        -0.9813    3.8024    7.6548 C.ar      1 <0>        -0.1526
     26 C24        -0.9509    2.7205    6.7941 C.ar      1 <0>         0.1137
     27 F1         -2.0460    2.3993    6.0710 F         1 <0>        -0.1317
     28 F2          1.4611   -4.2419   -3.7566 F         1 <0>        -0.1157
     29 C25        -2.4867   -2.4418   -0.9997 C.2       1 <0>         0.5191
     30 O1         -3.0763   -1.8405   -1.8864 O.co2     1 <0>        -0.6324
     31 O2         -2.9469   -3.4851   -0.5580 O.co2     1 <0>        -0.6326
     32 H1         -2.8489    0.2859    0.8587 H         1 <0>         0.0890
     33 H2         -3.2366   -1.4259    1.1549 H         1 <0>         0.0981
     34 H3         -2.3167   -0.4994    2.3648 H         1 <0>         0.0803
     35 H4         -0.7418   -3.5332   -2.5969 H         1 <0>         0.1723
     36 H5          3.5000   -3.1346   -2.5722 H         1 <0>         0.1645
     37 H6          3.4047   -1.6425   -0.6513 H         1 <0>         0.1611
     38 H7          0.7057    2.1787    1.5367 H         1 <0>         0.0807
     39 H8         -1.0714    2.0151    1.6702 H         1 <0>         0.0901
     40 H9          0.8027    2.9070    3.7120 H         1 <0>         0.0958
     41 H10        -0.9757    2.7433    3.8456 H         1 <0>         0.0996
     42 H11         0.3374   -2.2403    3.3938 H         1 <0>         0.1189
     43 H12         0.5405   -2.5743    5.8144 H         1 <0>         0.1366
     44 H13         0.4800   -0.6480    7.3430 H         1 <0>         0.1341
     45 H14         2.2425    1.7144    7.3360 H         1 <0>         0.1342
     46 H15         2.1712    3.6491    8.8528 H         1 <0>         0.1335
     47 H16         0.1149    4.9836    9.0577 H         1 <0>         0.1355
     48 H17        -1.8816    4.3915    7.7490 H         1 <0>         0.1392
     49 H18         1.9901   -0.5343    0.9284 H         1 <0>         0.4343
@<TRIPOS>BOND
     1    1    2 1
     2    1   32 1
     3    1   33 1
     4    1   34 1
     5    2   11 ar
     6    2    3 ar
     7    3    4 ar
     8    3   29 1
     9    4    9 ar
    10    4    5 ar
    11    5    6 ar
    12    5   35 1
    13    6    7 ar
    14    6   28 1
    15    7    8 ar
    16    7   36 1
    17    8    9 ar
    18    8   37 1
    19    9   10 ar
    20   10   11 ar
    21   10   49 1
    22   11   12 1
    23   12   16 1
    24   12   13 1
    25   13   14 1
    26   13   38 1
    27   13   39 1
    28   14   15 1
    29   14   40 1
    30   14   41 1
    31   15   20 ar
    32   15   16 ar
    33   16   17 ar
    34   17   18 ar
    35   17   42 1
    36   18   19 ar
    37   18   43 1
    38   19   20 ar
    39   19   44 1
    40   20   21 1
    41   21   26 ar
    42   21   22 ar
    43   22   23 ar
    44   22   45 1
    45   23   24 ar
    46   23   46 1
    47   24   25 ar
    48   24   47 1
    49   25   26 ar
    50   25   48 1
    51   26   27 1
    52   29   30 2
    53   29   31 1
@<TRIPOS>MOLECULE
CHEMBL39971
   41    44     0     0     0
SMALL
USER_CHARGES

@<TRIPOS>ATOM
      1 C1         -0.0040    1.5029    0.0090 C.3       1 <0>        -0.1117
      2 C2          0.0089   -0.0040    0.0014 C.ar      1 <0>        -0.1234
      3 C3         -0.0986   -0.7003   -1.1965 C.ar      1 <0>        -0.0390
      4 C4         -0.0786   -2.1596   -1.1232 C.ar      1 <0>        -0.0661
      5 C5         -0.1788   -2.9698   -2.2602 C.ar      1 <0>        -0.1123
      6 C6         -0.1512   -4.3251   -2.1020 C.ar      1 <0>         0.0548
      7 N1         -0.0328   -4.8844   -0.9065 N.ar      1 <0>        -0.4768
      8 C7          0.0655   -4.1865    0.2001 C.ar      1 <0>         0.1466
      9 C8          0.0475   -2.7798    0.1473 C.ar      1 <0>         0.0735
     10 N2          0.1452   -2.0339    1.2460 N.ar      1 <0>        -0.4728
     11 C9          0.1354   -0.7178    1.2043 C.ar      1 <0>         0.2054
     12 C10         0.2554    0.0376    2.4735 C.ar      1 <0>        -0.0305
     13 C11         0.9388    1.2537    2.4998 C.ar      1 <0>        -0.1013
     14 C12         1.0502    1.9555    3.6794 C.ar      1 <0>        -0.1054
     15 C13         0.4799    1.4507    4.8479 C.ar      1 <0>        -0.0529
     16 C14        -0.2035    0.2349    4.8219 C.ar      1 <0>        -0.1036
     17 C15        -0.3201   -0.4644    3.6413 C.ar      1 <0>        -0.0766
     18 C16         0.6004    2.2062    6.1179 C.ar      1 <0>        -0.0727
     19 C17         1.8443    2.6735    6.5390 C.ar      1 <0>        -0.0792
     20 C18         1.9507    3.3760    7.7218 C.ar      1 <0>        -0.1297
     21 C19         0.8262    3.6175    8.4910 C.ar      1 <0>        -0.0933
     22 C20        -0.4112    3.1571    8.0807 C.ar      1 <0>        -0.1544
     23 C21        -0.5323    2.4576    6.8941 C.ar      1 <0>         0.1087
     24 F1         -1.7424    2.0130    6.4903 F         1 <0>        -0.1321
     25 C22        -0.2280    0.0040   -2.4874 C.2       1 <0>         0.5337
     26 O1          0.7659    0.2297   -3.1631 O.co2     1 <0>        -0.6693
     27 O2         -1.3291    0.3617   -2.8811 O.co2     1 <0>        -0.6689
     28 H1          1.0192    1.8753   -0.0422 H         1 <0>         0.0737
     29 H2         -0.5661    1.8658   -0.8515 H         1 <0>         0.0788
     30 H3         -0.4743    1.8577    0.9260 H         1 <0>         0.0727
     31 H4         -0.2762   -2.5315   -3.2424 H         1 <0>         0.1416
     32 H5         -0.2283   -4.9581   -2.9736 H         1 <0>         0.1556
     33 H6          0.1599   -4.6906    1.1506 H         1 <0>         0.1665
     34 H7          1.3808    1.6444    1.5951 H         1 <0>         0.1428
     35 H8          1.5796    2.8966    3.6998 H         1 <0>         0.1280
     36 H9         -0.6450   -0.1557    5.7268 H         1 <0>         0.1237
     37 H10        -0.8530   -1.4035    3.6203 H         1 <0>         0.1327
     38 H11         2.7235    2.4856    5.9406 H         1 <0>         0.1353
     39 H12         2.9144    3.7381    8.0482 H         1 <0>         0.1307
     40 H13         0.9155    4.1676    9.4161 H         1 <0>         0.1316
     41 H14        -1.2854    3.3483    8.6855 H         1 <0>         0.1357
@<TRIPOS>BOND
     1    1    2 1
     2    1   28 1
     3    1   29 1
     4    1   30 1
     5    2   11 ar
     6    2    3 ar
     7    3    4 ar
     8    3   25 1
     9    4    9 ar
    10    4    5 ar
    11    5    6 ar
    12    5   31 1
    13    6    7 ar
    14    6   32 1
    15    7    8 ar
    16    8    9 ar
    17    8   33 1
    18    9   10 ar
    19   10   11 ar
    20   11   12 1
    21   12   17 ar
    22   12   13 ar
    23   13   14 ar
    24   13   34 1
    25   14   15 ar
    26   14   35 1
    27   15   16 ar
    28   15   18 1
    29   16   17 ar
    30   16   36 1
    31   17   37 1
    32   18   23 ar
    33   18   19 ar
    34   19   20 ar
    35   19   38 1
    36   20   21 ar
    37   20   39 1
    38   21   22 ar
    39   21   40 1
    40   22   23 ar
    41   22   41 1
    42   23   24 1
    43   25   26 2
    44   25   27 1
@<TRIPOS>MOLECULE
CHEMBL39325
   41    44     0     0     0
SMALL
USER_CHARGES

@<TRIPOS>ATOM
      1 C1         -0.0037    1.5029    0.0089 C.3       1 <0>        -0.1097
      2 C2          0.0090   -0.0040    0.0014 C.ar      1 <0>        -0.1431
      3 C3         -0.0986   -0.6988   -1.1961 C.ar      1 <0>        -0.0141
      4 C4         -0.0783   -2.1588   -1.1254 C.ar      1 <0>        -0.1535
      5 C5         -0.1788   -2.9631   -2.2651 C.ar      1 <0>         0.1818
      6 N1         -0.1550   -4.2718   -2.1461 N.ar      1 <0>        -0.5020
      7 C6         -0.0380   -4.8800   -0.9746 C.ar      1 <0>         0.0858
      8 C7          0.0657   -4.1852    0.1922 C.ar      1 <0>        -0.1564
      9 C8          0.0484   -2.7772    0.1459 C.ar      1 <0>         0.1592
     10 N2          0.1462   -2.0340    1.2456 N.ar      1 <0>        -0.4929
     11 C9          0.1356   -0.7171    1.2051 C.ar      1 <0>         0.2244
     12 C10         0.2556    0.0381    2.4740 C.ar      1 <0>        -0.0342
     13 C11         0.9391    1.2544    2.5003 C.ar      1 <0>        -0.0991
     14 C12         1.0501    1.9564    3.6798 C.ar      1 <0>        -0.1060
     15 C13         0.4793    1.4518    4.8483 C.ar      1 <0>        -0.0512
     16 C14        -0.2040    0.2360    4.8223 C.ar      1 <0>        -0.1044
     17 C15        -0.3199   -0.4639    3.6420 C.ar      1 <0>        -0.0752
     18 C16         0.5994    2.2075    6.1181 C.ar      1 <0>        -0.0733
     19 C17         1.8432    2.6749    6.5395 C.ar      1 <0>        -0.0791
     20 C18         1.9493    3.3776    7.7222 C.ar      1 <0>        -0.1297
     21 C19         0.8244    3.6193    8.4910 C.ar      1 <0>        -0.0930
     22 C20        -0.4129    3.1592    8.0802 C.ar      1 <0>        -0.1543
     23 C21        -0.5335    2.4590    6.8939 C.ar      1 <0>         0.1089
     24 F1         -1.7436    2.0144    6.4898 F         1 <0>        -0.1321
     25 C22        -0.2285    0.0077   -2.4872 C.2       1 <0>         0.5317
     26 O1          0.7651    0.2345   -3.1627 O.co2     1 <0>        -0.6668
     27 O2         -1.3296    0.3656   -2.8802 O.co2     1 <0>        -0.6664
     28 H1          1.0195    1.8752   -0.0421 H         1 <0>         0.0724
     29 H2         -0.5658    1.8659   -0.8516 H         1 <0>         0.0789
     30 H3         -0.4741    1.8577    0.9260 H         1 <0>         0.0713
     31 H4         -0.2761   -2.5099   -3.2406 H         1 <0>         0.1669
     32 H5         -0.0248   -5.9595   -0.9440 H         1 <0>         0.1539
     33 H6          0.1602   -4.7037    1.1348 H         1 <0>         0.1392
     34 H7          1.3814    1.6450    1.5957 H         1 <0>         0.1437
     35 H8          1.5795    2.8976    3.7002 H         1 <0>         0.1286
     36 H9         -0.6456   -0.1547    5.7272 H         1 <0>         0.1238
     37 H10        -0.8525   -1.4031    3.6211 H         1 <0>         0.1322
     38 H11         2.7226    2.4869    5.9414 H         1 <0>         0.1353
     39 H12         2.9128    3.7398    8.0489 H         1 <0>         0.1308
     40 H13         0.9135    4.1693    9.4162 H         1 <0>         0.1318
     41 H14        -1.2873    3.3508    8.6845 H         1 <0>         0.1358
@<TRIPOS>BOND
     1    1    2 1
     2    1   28 1
     3    1   29 1
     4    1   30 1
     5    2   11 ar
     6    2    3 ar
     7    3    4 ar
     8    3   25 1
     9    4    9 ar
    10    4    5 ar
    11    5    6 ar
    12    5   31 1
    13    6    7 ar
    14    7    8 ar
    15    7   32 1
    16    8    9 ar
    17    8   33 1
    18    9   10 ar
    19   10   11 ar
    20   11   12 1
    21   12   17 ar
    22   12   13 ar
    23   13   14 ar
    24   13   34 1
    25   14   15 ar
    26   14   35 1
    27   15   16 ar
    28   15   18 1
    29   16   17 ar
    30   16   36 1
    31   17   37 1
    32   18   23 ar
    33   18   19 ar
    34   19   20 ar
    35   19   38 1
    36   20   21 ar
    37   20   39 1
    38   21   22 ar
    39   21   40 1
    40   22   23 ar
    41   22   41 1
    42   23   24 1
    43   25   26 2
    44   25   27 1
@<TRIPOS>MOLECULE
CHEMBL320245
   41    45     0     0     0
SMALL
USER_CHARGES

@<TRIPOS>ATOM
      1 C1         -0.1136    1.1298    0.6578 C.ar      1 <0>        -0.1219
      2 C2          1.0458    1.8764    0.5480 C.ar      1 <0>        -0.1187
      3 C3          2.2686    1.2454    0.4431 C.ar      1 <0>        -0.1100
      4 C4          2.3340   -0.1470    0.4480 C.ar      1 <0>        -0.0401
      5 C5          1.1624   -0.8941    0.5589 C.ar      1 <0>        -0.1102
      6 C6         -0.0548   -0.2523    0.6632 C.ar      1 <0>        -0.1181
      7 C7          3.6450   -0.8309    0.3351 C.ar      1 <0>        -0.0357
      8 C8          4.8181   -0.0832    0.2294 C.ar      1 <0>        -0.1180
      9 C9          6.0287   -0.7238    0.1254 C.ar      1 <0>        -0.0665
     10 C10         6.0973   -2.1260    0.1253 C.ar      1 <0>        -0.0367
     11 C11         4.9291   -2.8687    0.2312 C.ar      1 <0>        -0.0515
     12 C12         3.7104   -2.2211    0.3399 C.ar      1 <0>        -0.1056
     13 C13         4.9189   -4.3758    0.2407 C.3       1 <0>        -0.0860
     14 S1          6.1803   -5.0008   -0.9048 S.3       1 <0>        -0.0548
     15 C14         7.6039   -4.0586   -0.4667 C.ar      1 <0>        -0.1544
     16 C15         7.4449   -2.7366    0.0098 C.ar      1 <0>         0.2151
     17 N1          8.4929   -2.0130    0.3582 N.ar      1 <0>        -0.4785
     18 C16         9.7467   -2.4612    0.2810 C.ar      1 <0>         0.1246
     19 C17        10.8283   -1.6461    0.6648 C.ar      1 <0>        -0.0691
     20 C18        12.1000   -2.1226    0.5762 C.ar      1 <0>        -0.1324
     21 C19        12.3551   -3.4116    0.1089 C.ar      1 <0>         0.0856
     22 C20        11.3288   -4.2306   -0.2721 C.ar      1 <0>        -0.1001
     23 C21        10.0131   -3.7701   -0.1914 C.ar      1 <0>        -0.0635
     24 C22         8.8799   -4.6145   -0.5858 C.ar      1 <0>         0.0010
     25 C23         9.0778   -5.9811   -1.0818 C.2       1 <0>         0.5315
     26 O1          9.2275   -6.1817   -2.2801 O.co2     1 <0>        -0.6637
     27 O2          9.0932   -6.9208   -0.2973 O.co2     1 <0>        -0.6589
     28 F1         13.6288   -3.8552    0.0314 F         1 <0>        -0.1392
     29 H1         -1.0680    1.6279    0.7442 H         1 <0>         0.1210
     30 H2          0.9938    2.9551    0.5440 H         1 <0>         0.1231
     31 H3          3.1731    1.8292    0.3571 H         1 <0>         0.1264
     32 H4          1.2072   -1.9732    0.5628 H         1 <0>         0.1266
     33 H5         -0.9632   -0.8301    0.7491 H         1 <0>         0.1235
     34 H6          4.7745    0.9959    0.2290 H         1 <0>         0.1296
     35 H7          6.9359   -0.1436    0.0435 H         1 <0>         0.1391
     36 H8          2.8024   -2.7995    0.4255 H         1 <0>         0.1314
     37 H9          5.1337   -4.7339    1.2475 H         1 <0>         0.1023
     38 H10         3.9374   -4.7341   -0.0698 H         1 <0>         0.1232
     39 H11        10.6493   -0.6452    1.0290 H         1 <0>         0.1432
     40 H12        12.9253   -1.4920    0.8723 H         1 <0>         0.1400
     41 H13        11.5345   -5.2276   -0.6328 H         1 <0>         0.1467
@<TRIPOS>BOND
     1    1    6 ar
     2    1    2 ar
     3    1   29 1
     4    2    3 ar
     5    2   30 1
     6    3    4 ar
     7    3   31 1
     8    4    5 ar
     9    4    7 1
    10    5    6 ar
    11    5   32 1
    12    6   33 1
    13    7   12 ar
    14    7    8 ar
    15    8    9 ar
    16    8   34 1
    17    9   10 ar
    18    9   35 1
    19   10   16 1
    20   10   11 ar
    21   11   12 ar
    22   11   13 1
    23   12   36 1
    24   13   14 1
    25   13   37 1
    26   13   38 1
    27   14   15 1
    28   15   24 ar
    29   15   16 ar
    30   16   17 ar
    31   17   18 ar
    32   18   23 ar
    33   18   19 ar
    34   19   20 ar
    35   19   39 1
    36   20   21 ar
    37   20   40 1
    38   21   22 ar
    39   21   28 1
    40   22   23 ar
    41   22   41 1
    42   23   24 ar
    43   24   25 1
    44   25   26 2
    45   25   27 1
@<TRIPOS>MOLECULE
CHEMBL442030
   69    73     0     0     0
SMALL
USER_CHARGES

@<TRIPOS>ATOM
      1 C1          4.4349   -4.6415   -2.4686 C.3       1 <0>         0.0233
      2 O1          3.3288   -4.0647   -1.7716 O.3       1 <0>        -0.3103
      3 C2          3.4069   -4.0250   -0.4153 C.ar      1 <0>         0.1542
      4 C3          4.5288   -4.5263    0.2296 C.ar      1 <0>        -0.2029
      5 C4          4.6088   -4.4868    1.6070 C.ar      1 <0>        -0.0443
      6 C5          3.5660   -3.9447    2.3477 C.ar      1 <0>         0.0676
      7 C6          2.4435   -3.4427    1.7013 C.ar      1 <0>        -0.0224
      8 C7          2.3673   -3.4781    0.3236 C.ar      1 <0>        -0.1391
      9 N1          3.6461   -3.9047    3.7448 N.pl3     1 <0>        -0.1857
     10 C8          2.7202   -4.4381    4.6022 C.2       1 <0>        -0.0394
     11 C9          3.1700   -4.1867    5.8730 C.2       1 <0>        -0.1171
     12 C10         4.3845   -3.4913    5.7113 C.2       1 <0>        -0.0186
     13 N2          4.6015   -3.3672    4.4145 N.2       1 <0>        -0.2196
     14 C11         5.2580   -2.9958    6.7944 C.2       1 <0>         0.6069
     15 O2          4.9486   -3.1773    7.9560 O.2       1 <0>        -0.5290
     16 N3          6.3982   -2.3425    6.4949 N.am      1 <0>        -0.7096
     17 C12         7.2646   -1.8510    7.5691 C.3       1 <0>         0.1100
     18 C13         8.4827   -1.1519    6.9623 C.3       1 <0>         0.0671
     19 C14         9.4579   -0.7321    8.0830 C.3       1 <0>        -0.1480
     20 C15         9.9468    0.6575    7.5912 C.3       1 <0>        -0.1565
     21 C16         8.6689    1.1894    6.8950 C.3       1 <0>         0.0486
     22 O3          8.0701    0.0378    6.2795 O.3       1 <0>        -0.3752
     23 C17         1.4839   -5.1431    4.2317 C.2       1 <0>         0.5922
     24 O4          1.2256   -5.3431    3.0600 O.2       1 <0>        -0.4962
     25 N4          0.6370   -5.5674    5.1904 N.am      1 <0>        -0.6551
     26 C18        -0.4784   -6.3288    4.8475 C.ar      1 <0>         0.1720
     27 C19        -1.0852   -6.1520    3.6077 C.ar      1 <0>        -0.1350
     28 C20        -2.1873   -6.9026    3.2659 C.ar      1 <0>        -0.0374
     29 C21        -2.6963   -7.8435    4.1652 C.ar      1 <0>        -0.1490
     30 C22        -2.0842   -8.0190    5.4093 C.ar      1 <0>        -0.1013
     31 C23        -0.9796   -7.2686    5.7432 C.ar      1 <0>        -0.1526
     32 C24        -3.8780   -8.6497    3.8022 C.2       1 <0>         0.5757
     33 O5         -4.5220   -8.3714    2.8091 O.2       1 <0>        -0.5344
     34 N5         -4.2433   -9.6944    4.5714 N.am      1 <0>        -0.6172
     35 C25        -3.6563  -10.0471    5.8724 C.3       1 <0>         0.0877
     36 C26        -4.3689  -11.3241    6.3654 C.3       1 <0>        -0.1363
     37 C27        -4.9236  -11.9408    5.0542 C.3       1 <0>        -0.1346
     38 C28        -5.3019  -10.6690    4.2505 C.3       1 <0>         0.1051
     39 H1          4.5639   -5.6766   -2.1523 H         1 <0>         0.0592
     40 H2          4.2445   -4.6104   -3.5414 H         1 <0>         0.1049
     41 H3          5.3401   -4.0774   -2.2438 H         1 <0>         0.0594
     42 H4          5.3394   -4.9478   -0.3463 H         1 <0>         0.1410
     43 H5          5.4816   -4.8776    2.1088 H         1 <0>         0.1350
     44 H6          1.6323   -3.0213    2.2764 H         1 <0>         0.1344
     45 H7          1.4966   -3.0839   -0.1793 H         1 <0>         0.1447
     46 H8          2.6933   -4.4629    6.8019 H         1 <0>         0.1765
     47 H9          6.6451   -2.1977    5.5681 H         1 <0>         0.4115
     48 H10         6.7111   -1.1446    8.1878 H         1 <0>         0.0766
     49 H11         7.5949   -2.6897    8.1819 H         1 <0>         0.0826
     50 H12         8.9849   -1.8228    6.2654 H         1 <0>         0.0893
     51 H13         8.9381   -0.6451    9.0371 H         1 <0>         0.0836
     52 H14        10.2899   -1.4326    8.1558 H         1 <0>         0.0879
     53 H15        10.2310    1.2934    8.4297 H         1 <0>         0.0864
     54 H16        10.7678    0.5565    6.8813 H         1 <0>         0.0803
     55 H17         7.9897    1.6217    7.6298 H         1 <0>         0.0622
     56 H18         8.9302    1.9296    6.1387 H         1 <0>         0.0876
     57 H19         0.8039   -5.3428    6.1192 H         1 <0>         0.4177
     58 H20        -0.6914   -5.4247    2.9132 H         1 <0>         0.1547
     59 H21        -2.6583   -6.7644    2.3038 H         1 <0>         0.1397
     60 H22        -2.4754   -8.7450    6.1067 H         1 <0>         0.1629
     61 H23        -0.5036   -7.4066    6.7028 H         1 <0>         0.1345
     62 H24        -2.5894  -10.2387    5.7580 H         1 <0>         0.0813
     63 H25        -3.8154   -9.2360    6.5829 H         1 <0>         0.0799
     64 H26        -3.6601  -12.0021    6.8408 H         1 <0>         0.0861
     65 H27        -5.1813  -11.0734    7.0475 H         1 <0>         0.0801
     66 H28        -4.1563  -12.5187    4.5391 H         1 <0>         0.0780
     67 H29        -5.8041  -12.5522    5.2519 H         1 <0>         0.0873
     68 H30        -6.2739  -10.2917    4.5684 H         1 <0>         0.0710
     69 H31        -5.3084  -10.8839    3.1820 H         1 <0>         0.0801
@<TRIPOS>BOND
     1    1    2 1
     2    1   39 1
     3    1   40 1
     4    1   41 1
     5    2    3 1
     6    3    8 ar
     7    3    4 ar
     8    4    5 ar
     9    4   42 1
    10    5    6 ar
    11    5   43 1
    12    6    7 ar
    13    6    9 1
    14    7    8 ar
    15    7   44 1
    16    8   45 1
    17    9   13 1
    18    9   10 1
    19   10   11 2
    20   10   23 1
    21   11   12 1
    22   11   46 1
    23   12   13 2
    24   12   14 1
    25   14   15 2
    26   14   16 am
    27   16   17 1
    28   16   47 1
    29   17   18 1
    30   17   48 1
    31   17   49 1
    32   18   22 1
    33   18   19 1
    34   18   50 1
    35   19   20 1
    36   19   51 1
    37   19   52 1
    38   20   21 1
    39   20   53 1
    40   20   54 1
    41   21   22 1
    42   21   55 1
    43   21   56 1
    44   23   24 2
    45   23   25 am
    46   25   26 1
    47   25   57 1
    48   26   31 ar
    49   26   27 ar
    50   27   28 ar
    51   27   58 1
    52   28   29 ar
    53   28   59 1
    54   29   30 ar
    55   29   32 1
    56   30   31 ar
    57   30   60 1
    58   31   61 1
    59   32   33 2
    60   32   34 am
    61   34   38 1
    62   34   35 1
    63   35   36 1
    64   35   62 1
    65   35   63 1
    66   36   37 1
    67   36   64 1
    68   36   65 1
    69   37   38 1
    70   37   66 1
    71   37   67 1
    72   38   68 1
    73   38   69 1
@<TRIPOS>MOLECULE
CHEMBL442030__1
   69    73     0     0     0
SMALL
USER_CHARGES

@<TRIPOS>ATOM
      1 C1          4.4349   -4.6415   -2.4686 C.3       1 <0>         0.0232
      2 O1          3.3288   -4.0647   -1.7716 O.3       1 <0>        -0.3104
      3 C2          3.4069   -4.0250   -0.4153 C.ar      1 <0>         0.1541
      4 C3          4.5288   -4.5263    0.2296 C.ar      1 <0>        -0.2028
      5 C4          4.6088   -4.4868    1.6070 C.ar      1 <0>        -0.0440
      6 C5          3.5660   -3.9447    2.3477 C.ar      1 <0>         0.0674
      7 C6          2.4435   -3.4427    1.7013 C.ar      1 <0>        -0.0225
      8 C7          2.3673   -3.4781    0.3236 C.ar      1 <0>        -0.1394
      9 N1          3.6461   -3.9047    3.7448 N.pl3     1 <0>        -0.1857
     10 C8          2.7202   -4.4381    4.6022 C.2       1 <0>        -0.0395
     11 C9          3.1700   -4.1867    5.8730 C.2       1 <0>        -0.1170
     12 C10         4.3845   -3.4913    5.7113 C.2       1 <0>        -0.0186
     13 N2          4.6015   -3.3672    4.4145 N.2       1 <0>        -0.2195
     14 C11         5.2580   -2.9958    6.7944 C.2       1 <0>         0.6072
     15 O2          4.9486   -3.1773    7.9560 O.2       1 <0>        -0.5287
     16 N3          6.3982   -2.3425    6.4949 N.am      1 <0>        -0.7100
     17 C12         7.2646   -1.8510    7.5691 C.3       1 <0>         0.1223
     18 C13         8.4827   -1.1519    6.9623 C.3       1 <0>         0.0665
     19 C14         9.4484   -0.6865    8.0810 C.3       1 <0>        -0.1482
     20 C15        10.7935   -0.6340    7.3064 C.3       1 <0>        -0.1561
     21 C16        10.6438   -1.8039    6.3103 C.3       1 <0>         0.0503
     22 O3          9.2446   -2.0763    6.1696 O.3       1 <0>        -0.3774
     23 C17         1.4839   -5.1431    4.2317 C.2       1 <0>         0.5922
     24 O4          1.2256   -5.3431    3.0600 O.2       1 <0>        -0.4962
     25 N4          0.6370   -5.5674    5.1904 N.am      1 <0>        -0.6550
     26 C18        -0.4784   -6.3288    4.8475 C.ar      1 <0>         0.1720
     27 C19        -1.0852   -6.1520    3.6077 C.ar      1 <0>        -0.1350
     28 C20        -2.1873   -6.9026    3.2659 C.ar      1 <0>        -0.0374
     29 C21        -2.6963   -7.8435    4.1652 C.ar      1 <0>        -0.1491
     30 C22        -2.0842   -8.0190    5.4093 C.ar      1 <0>        -0.1013
     31 C23        -0.9796   -7.2686    5.7432 C.ar      1 <0>        -0.1526
     32 C24        -3.8780   -8.6497    3.8022 C.2       1 <0>         0.5757
     33 O5         -4.5220   -8.3714    2.8091 O.2       1 <0>        -0.5345
     34 N5         -4.2433   -9.6944    4.5714 N.am      1 <0>        -0.6172
     35 C25        -3.6563  -10.0471    5.8724 C.3       1 <0>         0.0877
     36 C26        -4.3689  -11.3241    6.3654 C.3       1 <0>        -0.1363
     37 C27        -4.9236  -11.9408    5.0542 C.3       1 <0>        -0.1346
     38 C28        -5.3019  -10.6690    4.2505 C.3       1 <0>         0.1051
     39 H1          4.5639   -5.6766   -2.1523 H         1 <0>         0.0593
     40 H2          4.2445   -4.6104   -3.5414 H         1 <0>         0.1049
     41 H3          5.3401   -4.0774   -2.2438 H         1 <0>         0.0594
     42 H4          5.3394   -4.9478   -0.3463 H         1 <0>         0.1411
     43 H5          5.4816   -4.8776    2.1088 H         1 <0>         0.1354
     44 H6          1.6323   -3.0213    2.2764 H         1 <0>         0.1343
     45 H7          1.4966   -3.0839   -0.1793 H         1 <0>         0.1446
     46 H8          2.6933   -4.4629    6.8019 H         1 <0>         0.1766
     47 H9          6.6451   -2.1977    5.5681 H         1 <0>         0.4123
     48 H10         6.7111   -1.1446    8.1878 H         1 <0>         0.0857
     49 H11         7.5949   -2.6897    8.1819 H         1 <0>         0.0788
     50 H12         8.1676   -0.3032    6.3552 H         1 <0>         0.0805
     51 H13         9.1713    0.2994    8.4542 H         1 <0>         0.0888
     52 H14         9.4901   -1.4139    8.8917 H         1 <0>         0.0848
     53 H15        10.9004    0.3137    6.7785 H         1 <0>         0.0787
     54 H16        11.6350   -0.8019    7.9785 H         1 <0>         0.0854
     55 H17        11.0649   -1.5237    5.3448 H         1 <0>         0.0701
     56 H18        11.1552   -2.6858    6.6962 H         1 <0>         0.0710
     57 H19         0.8039   -5.3428    6.1192 H         1 <0>         0.4177
     58 H20        -0.6914   -5.4247    2.9132 H         1 <0>         0.1547
     59 H21        -2.6583   -6.7644    2.3038 H         1 <0>         0.1397
     60 H22        -2.4754   -8.7450    6.1067 H         1 <0>         0.1629
     61 H23        -0.5036   -7.4066    6.7028 H         1 <0>         0.1346
     62 H24        -2.5894  -10.2387    5.7580 H         1 <0>         0.0813
     63 H25        -3.8154   -9.2360    6.5829 H         1 <0>         0.0799
     64 H26        -3.6601  -12.0021    6.8408 H         1 <0>         0.0861
     65 H27        -5.1813  -11.0734    7.0475 H         1 <0>         0.0801
     66 H28        -4.1563  -12.5187    4.5391 H         1 <0>         0.0780
     67 H29        -5.8041  -12.5522    5.2519 H         1 <0>         0.0873
     68 H30        -6.2739  -10.2917    4.5684 H         1 <0>         0.0710
     69 H31        -5.3084  -10.8839    3.1820 H         1 <0>         0.0800
@<TRIPOS>BOND
     1    1    2 1
     2    1   39 1
     3    1   40 1
     4    1   41 1
     5    2    3 1
     6    3    8 ar
     7    3    4 ar
     8    4    5 ar
     9    4   42 1
    10    5    6 ar
    11    5   43 1
    12    6    7 ar
    13    6    9 1
    14    7    8 ar
    15    7   44 1
    16    8   45 1
    17    9   13 1
    18    9   10 1
    19   10   11 2
    20   10   23 1
    21   11   12 1
    22   11   46 1
    23   12   13 2
    24   12   14 1
    25   14   15 2
    26   14   16 am
    27   16   17 1
    28   16   47 1
    29   17   18 1
    30   17   48 1
    31   17   49 1
    32   18   22 1
    33   18   19 1
    34   18   50 1
    35   19   20 1
    36   19   51 1
    37   19   52 1
    38   20   21 1
    39   20   53 1
    40   20   54 1
    41   21   22 1
    42   21   55 1
    43   21   56 1
    44   23   24 2
    45   23   25 am
    46   25   26 1
    47   25   57 1
    48   26   31 ar
    49   26   27 ar
    50   27   28 ar
    51   27   58 1
    52   28   29 ar
    53   28   59 1
    54   29   30 ar
    55   29   32 1
    56   30   31 ar
    57   30   60 1
    58   31   61 1
    59   32   33 2
    60   32   34 am
    61   34   38 1
    62   34   35 1
    63   35   36 1
    64   35   62 1
    65   35   63 1
    66   36   37 1
    67   36   64 1
    68   36   65 1
    69   37   38 1
    70   37   66 1
    71   37   67 1
    72   38   68 1
    73   38   69 1
@<TRIPOS>MOLECULE
CHEMBL108327
   43    47     0     0     0
SMALL
USER_CHARGES

@<TRIPOS>ATOM
      1 C1         -0.0697    1.2564    0.4098 C.ar      1 <0>        -0.1197
      2 C2          1.1033    1.9861    0.3385 C.ar      1 <0>        -0.1181
      3 C3          2.3193    1.3374    0.2678 C.ar      1 <0>        -0.1099
      4 C4          2.3641   -0.0557    0.2683 C.ar      1 <0>        -0.0431
      5 C5          1.1789   -0.7858    0.3403 C.ar      1 <0>        -0.1106
      6 C6         -0.0314   -0.1264    0.4107 C.ar      1 <0>        -0.1154
      7 C7          3.6678   -0.7586    0.1921 C.ar      1 <0>        -0.0561
      8 C8          4.8543   -0.0281    0.1253 C.ar      1 <0>        -0.0685
      9 C9          6.0637   -0.6796    0.0523 C.ar      1 <0>        -0.0874
     10 C10         6.1116   -2.0772    0.0317 C.ar      1 <0>         0.0498
     11 C11         4.9244   -2.7998    0.1096 C.ar      1 <0>        -0.6224
     12 C12         3.7128   -2.1530    0.1926 C.ar      1 <0>        -0.0128
     13 S1          4.9856   -4.5639    0.1159 S.o2      1 <0>         2.4950
     14 O1          3.8022   -4.9763   -0.5541 O.2       1 <0>        -0.9334
     15 O2          5.2172   -4.9201    1.4719 O.2       1 <0>        -0.9199
     16 C13         6.4472   -4.9374   -0.8952 C.3       1 <0>        -0.5433
     17 C14         7.5982   -4.0747   -0.4409 C.ar      1 <0>        -0.1239
     18 C15         7.4346   -2.7477   -0.0364 C.ar      1 <0>         0.1846
     19 N1          8.4811   -2.0101    0.3212 N.ar      1 <0>        -0.4707
     20 C16         9.7274   -2.4686    0.3445 C.ar      1 <0>         0.1297
     21 C17        10.8025   -1.6452    0.7318 C.ar      1 <0>        -0.0677
     22 C18        12.0651   -2.1505    0.7569 C.ar      1 <0>        -0.1284
     23 C19        12.3180   -3.4764    0.4015 C.ar      1 <0>         0.0897
     24 C20        11.3005   -4.3020    0.0148 C.ar      1 <0>        -0.1012
     25 C21         9.9921   -3.8129   -0.0225 C.ar      1 <0>        -0.0667
     26 C22         8.8679   -4.6492   -0.4387 C.ar      1 <0>        -0.0072
     27 C23         9.0705   -6.0543   -0.8427 C.2       1 <0>         0.5264
     28 O3          9.2594   -6.3311   -2.0188 O.co2     1 <0>        -0.6609
     29 O4          9.0494   -6.9415   -0.0015 O.co2     1 <0>        -0.6590
     30 F1         13.5832   -3.9485    0.4398 F         1 <0>        -0.1375
     31 H1         -1.0189    1.7682    0.4695 H         1 <0>         0.1222
     32 H2          1.0674    3.0655    0.3378 H         1 <0>         0.1240
     33 H3          3.2345    1.9081    0.2119 H         1 <0>         0.1265
     34 H4          1.2076   -1.8654    0.3407 H         1 <0>         0.1292
     35 H5         -0.9503   -0.6910    0.4669 H         1 <0>         0.1258
     36 H6          4.8234    1.0515    0.1306 H         1 <0>         0.1365
     37 H7          6.9800   -0.1094    0.0105 H         1 <0>         0.1481
     38 H8          2.7979   -2.7237    0.2534 H         1 <0>         0.1444
     39 H9          6.7118   -5.9884   -0.7787 H         1 <0>         0.1605
     40 H10         6.2281   -4.7301   -1.9427 H         1 <0>         0.1548
     41 H11        10.6250   -0.6164    1.0081 H         1 <0>         0.1460
     42 H12        12.8855   -1.5153    1.0564 H         1 <0>         0.1423
     43 H13        11.5060   -5.3260   -0.2602 H         1 <0>         0.1485
@<TRIPOS>BOND
     1    1    6 ar
     2    1    2 ar
     3    1   31 1
     4    2    3 ar
     5    2   32 1
     6    3    4 ar
     7    3   33 1
     8    4    5 ar
     9    4    7 1
    10    5    6 ar
    11    5   34 1
    12    6   35 1
    13    7   12 ar
    14    7    8 ar
    15    8    9 ar
    16    8   36 1
    17    9   10 ar
    18    9   37 1
    19   10   18 1
    20   10   11 ar
    21   11   12 ar
    22   11   13 1
    23   12   38 1
    24   13   14 2
    25   13   15 2
    26   13   16 1
    27   16   17 1
    28   16   39 1
    29   16   40 1
    30   17   26 ar
    31   17   18 ar
    32   18   19 ar
    33   19   20 ar
    34   20   25 ar
    35   20   21 ar
    36   21   22 ar
    37   21   41 1
    38   22   23 ar
    39   22   42 1
    40   23   24 ar
    41   23   30 1
    42   24   25 ar
    43   24   43 1
    44   25   26 ar
    45   26   27 1
    46   27   28 2
    47   27   29 1
@<TRIPOS>MOLECULE
CHEMBL39448
   42    45     0     0     0
SMALL
USER_CHARGES

@<TRIPOS>ATOM
      1 C1         -0.0033    1.5029    0.0089 C.3       1 <0>        -0.1088
      2 C2          0.0092   -0.0040    0.0014 C.ar      1 <0>        -0.1385
      3 C3         -0.0985   -0.6999   -1.1958 C.ar      1 <0>        -0.0365
      4 C4         -0.0786   -2.1618   -1.1266 C.ar      1 <0>        -0.0896
      5 C5         -0.1805   -2.9497   -2.2778 C.ar      1 <0>        -0.0674
      6 C6         -0.1573   -4.3087   -2.1683 C.ar      1 <0>        -0.1371
      7 C7         -0.0338   -4.9227   -0.9237 C.ar      1 <0>        -0.1051
      8 C8          0.0672   -4.1864    0.2163 C.ar      1 <0>        -0.1037
      9 C9          0.0479   -2.7807    0.1430 C.ar      1 <0>         0.1277
     10 N1          0.1464   -2.0332    1.2427 N.ar      1 <0>        -0.4882
     11 C10         0.1356   -0.7174    1.2035 C.ar      1 <0>         0.2027
     12 C11         0.2554    0.0369    2.4735 C.ar      1 <0>        -0.0303
     13 C12         0.9388    1.2529    2.5010 C.ar      1 <0>        -0.1004
     14 C13         1.0500    1.9537    3.6814 C.ar      1 <0>        -0.1135
     15 C14         0.4796    1.4478    4.8492 C.ar      1 <0>        -0.0484
     16 C15        -0.2035    0.2322    4.8221 C.ar      1 <0>        -0.1159
     17 C16        -0.3200   -0.4662    3.6407 C.ar      1 <0>        -0.0783
     18 C17         0.6000    2.2023    6.1202 C.ar      1 <0>        -0.0370
     19 C18         1.2776    3.4201    6.1494 C.ar      1 <0>        -0.1123
     20 C19         1.3861    4.1181    7.3349 C.ar      1 <0>        -0.1181
     21 C20         0.8243    3.6112    8.4930 C.ar      1 <0>        -0.1248
     22 C21         0.1511    2.4030    8.4701 C.ar      1 <0>        -0.1187
     23 C22         0.0310    1.6992    7.2890 C.ar      1 <0>        -0.1129
     24 C23        -0.2283    0.0063   -2.4858 C.2       1 <0>         0.5337
     25 O1          0.7654    0.2332   -3.1613 O.co2     1 <0>        -0.6722
     26 O2         -1.3296    0.3643   -2.8788 O.co2     1 <0>        -0.6722
     27 H1          1.0199    1.8750   -0.0419 H         1 <0>         0.0703
     28 H2         -0.5651    1.8659   -0.8518 H         1 <0>         0.0764
     29 H3         -0.4739    1.8578    0.9258 H         1 <0>         0.0699
     30 H4         -0.2774   -2.4845   -3.2477 H         1 <0>         0.1309
     31 H5         -0.2360   -4.9167   -3.0574 H         1 <0>         0.1233
     32 H6         -0.0182   -6.0009   -0.8626 H         1 <0>         0.1235
     33 H7          0.1616   -4.6784    1.1731 H         1 <0>         0.1289
     34 H8          1.3808    1.6445    1.5967 H         1 <0>         0.1416
     35 H9          1.5793    2.8948    3.7028 H         1 <0>         0.1276
     36 H10        -0.6448   -0.1596    5.7266 H         1 <0>         0.1254
     37 H11        -0.8529   -1.4053    3.6188 H         1 <0>         0.1307
     38 H12         1.7172    3.8164    5.2460 H         1 <0>         0.1267
     39 H13         1.9109    5.0617    7.3587 H         1 <0>         0.1226
     40 H14         0.9120    4.1607    9.4186 H         1 <0>         0.1201
     41 H15        -0.2849    2.0117    9.3774 H         1 <0>         0.1221
     42 H16        -0.4989    0.7584    7.2713 H         1 <0>         0.1257
@<TRIPOS>BOND
     1    1    2 1
     2    1   27 1
     3    1   28 1
     4    1   29 1
     5    2   11 ar
     6    2    3 ar
     7    3    4 ar
     8    3   24 1
     9    4    9 ar
    10    4    5 ar
    11    5    6 ar
    12    5   30 1
    13    6    7 ar
    14    6   31 1
    15    7    8 ar
    16    7   32 1
    17    8    9 ar
    18    8   33 1
    19    9   10 ar
    20   10   11 ar
    21   11   12 1
    22   12   17 ar
    23   12   13 ar
    24   13   14 ar
    25   13   34 1
    26   14   15 ar
    27   14   35 1
    28   15   16 ar
    29   15   18 1
    30   16   17 ar
    31   16   36 1
    32   17   37 1
    33   18   23 ar
    34   18   19 ar
    35   19   20 ar
    36   19   38 1
    37   20   21 ar
    38   20   39 1
    39   21   22 ar
    40   21   40 1
    41   22   23 ar
    42   22   41 1
    43   23   42 1
    44   24   25 2
    45   24   26 1
@<TRIPOS>MOLECULE
CHEMBL195622
   43    45     0     0     0
SMALL
USER_CHARGES

@<TRIPOS>ATOM
      1 C1          0.3720    1.4356    0.3154 C.3       1 <0>         0.0279
      2 O1          0.4571    0.0092    0.3228 O.3       1 <0>        -0.3165
      3 C2          0.7661   -0.5966   -0.8538 C.ar      1 <0>         0.1296
      4 C3          0.9884    0.1684   -1.9909 C.ar      1 <0>        -0.2098
      5 C4          1.3033   -0.4433   -3.1896 C.ar      1 <0>        -0.0777
      6 C5          1.3986   -1.8187   -3.2631 C.ar      1 <0>        -0.1459
      7 C6          1.1769   -2.5940   -2.1263 C.ar      1 <0>         0.0062
      8 C7          0.8647   -1.9766   -0.9171 C.ar      1 <0>        -0.1412
      9 C8          1.2787   -4.0719   -2.2024 C.ar      1 <0>        -0.0248
     10 C9          1.0510   -4.8463   -1.0658 C.ar      1 <0>        -0.1371
     11 C10         1.1456   -6.2219   -1.1380 C.ar      1 <0>         0.1408
     12 C11         1.4680   -6.8353   -2.3448 C.ar      1 <0>         0.1080
     13 C12         1.6959   -6.0634   -3.4801 C.ar      1 <0>         0.0921
     14 C13         1.5964   -4.6880   -3.4118 C.ar      1 <0>        -0.1358
     15 F1          2.0093   -6.6604   -4.6508 F         1 <0>        -0.1308
     16 N1          1.5634   -8.2284   -2.4167 N.am      1 <0>        -0.6478
     17 C14         0.7547   -8.9991   -1.6626 C.2       1 <0>         0.6023
     18 O2         -0.0968   -8.4849   -0.9642 O.2       1 <0>        -0.5138
     19 C15         0.9033  -10.4691   -1.6849 C.2       1 <0>        -0.1949
     20 C16         1.8527  -11.1508   -1.0289 C.2       1 <0>        -0.1037
     21 C17         1.7058  -12.6345   -1.2755 C.3       1 <0>        -0.0867
     22 C18         0.2750  -12.8052   -1.8339 C.3       1 <0>        -0.1226
     23 C19         0.0022  -11.4143   -2.4454 C.3       1 <0>        -0.0690
     24 C20         2.8945  -10.5388   -0.1854 C.2       1 <0>         0.5162
     25 O3          2.9968   -9.3216   -0.1265 O.co2     1 <0>        -0.6665
     26 O4          3.6569  -11.2482    0.4558 O.co2     1 <0>        -0.6830
     27 F2          0.9254   -6.9726   -0.0366 F         1 <0>        -0.0882
     28 H1          1.3315    1.8553    0.0130 H         1 <0>         0.0550
     29 H2         -0.3997    1.7499   -0.3873 H         1 <0>         0.0548
     30 H3          0.1194    1.7898    1.3148 H         1 <0>         0.0995
     31 H4          0.9147    1.2446   -1.9387 H         1 <0>         0.1271
     32 H5          1.4750    0.1562   -4.0714 H         1 <0>         0.1270
     33 H6          1.6445   -2.2938   -4.2013 H         1 <0>         0.1294
     34 H7          0.6961   -2.5726   -0.0324 H         1 <0>         0.1371
     35 H8          0.8011   -4.3704   -0.1290 H         1 <0>         0.1462
     36 H9          1.7686   -4.0894   -4.2941 H         1 <0>         0.1457
     37 H10         2.2116   -8.6403   -3.0092 H         1 <0>         0.4144
     38 H11         2.4407  -12.9718   -2.0064 H         1 <0>         0.0777
     39 H12         1.8169  -13.1867   -0.3423 H         1 <0>         0.0789
     40 H13         0.2449  -13.5822   -2.5977 H         1 <0>         0.0714
     41 H14        -0.4327  -13.0202   -1.0332 H         1 <0>         0.0691
     42 H15        -1.0425  -11.1361   -2.3065 H         1 <0>         0.0685
     43 H16         0.2582  -11.4120   -3.5049 H         1 <0>         0.0711
@<TRIPOS>BOND
     1    1    2 1
     2    1   28 1
     3    1   29 1
     4    1   30 1
     5    2    3 1
     6    3    8 ar
     7    3    4 ar
     8    4    5 ar
     9    4   31 1
    10    5    6 ar
    11    5   32 1
    12    6    7 ar
    13    6   33 1
    14    7    8 ar
    15    7    9 1
    16    8   34 1
    17    9   14 ar
    18    9   10 ar
    19   10   11 ar
    20   10   35 1
    21   11   12 ar
    22   11   27 1
    23   12   13 ar
    24   12   16 1
    25   13   14 ar
    26   13   15 1
    27   14   36 1
    28   16   17 am
    29   16   37 1
    30   17   18 2
    31   17   19 1
    32   19   23 1
    33   19   20 2
    34   20   21 1
    35   20   24 1
    36   21   22 1
    37   21   38 1
    38   21   39 1
    39   22   23 1
    40   22   40 1
    41   22   41 1
    42   23   42 1
    43   23   43 1
    44   24   25 2
    45   24   26 1
@<TRIPOS>MOLECULE
CHEMBL194023
   41    43     0     0     0
SMALL
USER_CHARGES

@<TRIPOS>ATOM
      1 C1          0.0755    1.4015    0.1023 C.3       1 <0>         0.0282
      2 O1          0.0811   -0.0273    0.0835 O.3       1 <0>        -0.3178
      3 C2         -1.1273   -0.6490    0.0716 C.ar      1 <0>         0.1286
      4 C3         -2.2946    0.1027    0.0721 C.ar      1 <0>        -0.2139
      5 C4         -3.5258   -0.5252    0.0600 C.ar      1 <0>        -0.0769
      6 C5         -3.6019   -1.9037    0.0478 C.ar      1 <0>        -0.1499
      7 C6         -2.4349   -2.6657    0.0473 C.ar      1 <0>         0.0108
      8 C7         -1.1942   -2.0322    0.0533 C.ar      1 <0>        -0.1452
      9 C8         -2.5138   -4.1469    0.0342 C.ar      1 <0>        -0.0577
     10 C9         -1.3457   -4.9080    0.0394 C.ar      1 <0>        -0.0940
     11 C10        -1.4199   -6.2847    0.0278 C.ar      1 <0>        -0.1027
     12 C11        -2.6583   -6.9152    0.0108 C.ar      1 <0>         0.1579
     13 C12        -3.8267   -6.1580    0.0055 C.ar      1 <0>         0.0759
     14 C13        -3.7559   -4.7795    0.0225 C.ar      1 <0>        -0.1210
     15 F1         -5.0297   -6.7725   -0.0115 F         1 <0>        -0.1325
     16 N1         -2.7309   -8.3104   -0.0015 N.am      1 <0>        -0.6526
     17 C14        -1.7999   -9.0279   -0.6610 C.2       1 <0>         0.6183
     18 O2         -0.8556   -8.4663   -1.1807 O.2       1 <0>        -0.5190
     19 C15        -1.9272  -10.4974   -0.7521 C.2       1 <0>        -0.1808
     20 C16        -2.6742  -11.0583   -1.6883 C.2       1 <0>        -0.1150
     21 C17        -2.7594  -12.5737   -1.7236 C.3       1 <0>        -0.0043
     22 S1         -1.3471  -13.0337   -0.6295 S.3       1 <0>        -0.3162
     23 C18        -1.1991  -11.4058    0.2224 C.3       1 <0>        -0.0078
     24 C19        -3.4039  -10.2355   -2.6693 C.2       1 <0>         0.5190
     25 O3         -3.4002   -9.0167   -2.5684 O.co2     1 <0>        -0.6538
     26 O4         -4.0131  -10.7714   -3.5843 O.co2     1 <0>        -0.6717
     27 H1          1.1017    1.7688    0.1103 H         1 <0>         0.0988
     28 H2         -0.4370    1.7745   -0.7845 H         1 <0>         0.0548
     29 H3         -0.4426    1.7511    0.9953 H         1 <0>         0.0543
     30 H4         -2.2404    1.1813    0.0823 H         1 <0>         0.1259
     31 H5         -4.4309    0.0641    0.0605 H         1 <0>         0.1258
     32 H6         -4.5654   -2.3914    0.0391 H         1 <0>         0.1282
     33 H7         -0.2870   -2.6182    0.0484 H         1 <0>         0.1357
     34 H8         -0.3827   -4.4193    0.0523 H         1 <0>         0.1332
     35 H9         -0.5147   -6.8737    0.0315 H         1 <0>         0.1508
     36 H10        -4.6619   -4.1917    0.0229 H         1 <0>         0.1388
     37 H11        -3.4514   -8.7627    0.4646 H         1 <0>         0.4094
     38 H12        -3.7057  -12.9233   -1.3107 H         1 <0>         0.1081
     39 H13        -2.6113  -12.9516   -2.7352 H         1 <0>         0.1191
     40 H14        -0.1551  -11.1110    0.3284 H         1 <0>         0.1095
     41 H15        -1.6999  -11.4247    1.1903 H         1 <0>         0.1019
@<TRIPOS>BOND
     1    1    2 1
     2    1   27 1
     3    1   28 1
     4    1   29 1
     5    2    3 1
     6    3    8 ar
     7    3    4 ar
     8    4    5 ar
     9    4   30 1
    10    5    6 ar
    11    5   31 1
    12    6    7 ar
    13    6   32 1
    14    7    8 ar
    15    7    9 1
    16    8   33 1
    17    9   14 ar
    18    9   10 ar
    19   10   11 ar
    20   10   34 1
    21   11   12 ar
    22   11   35 1
    23   12   13 ar
    24   12   16 1
    25   13   14 ar
    26   13   15 1
    27   14   36 1
    28   16   17 am
    29   16   37 1
    30   17   18 2
    31   17   19 1
    32   19   23 1
    33   19   20 2
    34   20   21 1
    35   20   24 1
    36   21   22 1
    37   21   38 1
    38   21   39 1
    39   22   23 1
    40   23   40 1
    41   23   41 1
    42   24   25 2
    43   24   26 1
@<TRIPOS>MOLECULE
CHEMBL38669
   36    39     0     0     0
SMALL
USER_CHARGES

@<TRIPOS>ATOM
      1 C1         -0.0167    1.3791    0.0096 C.ar      1 <0>        -0.1244
      2 C2          1.1686    2.0922    0.0021 C.ar      1 <0>        -0.1189
      3 C3          2.3774    1.4265   -0.0130 C.ar      1 <0>        -0.1126
      4 C4          2.4024    0.0329   -0.0207 C.ar      1 <0>        -0.0379
      5 C5          1.2049   -0.6804   -0.0131 C.ar      1 <0>        -0.1119
      6 C6          0.0021   -0.0041    0.0020 C.ar      1 <0>        -0.1181
      7 C7          3.6982   -0.6882   -0.0375 C.ar      1 <0>        -0.0481
      8 C8          4.8948    0.0282   -0.0398 C.ar      1 <0>        -0.1154
      9 C9          6.0984   -0.6412   -0.0554 C.ar      1 <0>        -0.0801
     10 C10         6.1204   -2.0360   -0.0688 C.ar      1 <0>        -0.0284
     11 C11         4.9234   -2.7525   -0.0665 C.ar      1 <0>        -0.0951
     12 C12         3.7201   -2.0826   -0.0452 C.ar      1 <0>        -0.1100
     13 C13         7.4154   -2.7566   -0.0861 C.ar      1 <0>         0.1734
     14 C14         7.4332   -4.1520   -0.1054 C.ar      1 <0>        -0.1357
     15 C15         8.6424   -4.8337   -0.1216 C.ar      1 <0>        -0.0435
     16 C16         9.8586   -4.0797   -0.1186 C.ar      1 <0>        -0.1091
     17 C17        11.1816   -4.5529   -0.1332 C.2       1 <0>        -0.1086
     18 C18        12.2114   -3.6864   -0.1275 C.2       1 <0>        -0.1772
     19 S1         11.3992   -2.0980   -0.1014 S.3       1 <0>         0.0309
     20 C19         9.7163   -2.6696   -0.0989 C.ar      1 <0>         0.0878
     21 N1          8.5526   -2.0714   -0.0886 N.ar      1 <0>        -0.4505
     22 C20         8.6730   -6.3077   -0.1410 C.2       1 <0>         0.5218
     23 O1          7.6267   -6.9412   -0.1430 O.co2     1 <0>        -0.6718
     24 O2          9.7447   -6.8970   -0.1552 O.co2     1 <0>        -0.6690
     25 H1         -0.9603    1.9042    0.0260 H         1 <0>         0.1202
     26 H2          1.1480    3.1720    0.0078 H         1 <0>         0.1223
     27 H3          3.3022    1.9843   -0.0192 H         1 <0>         0.1259
     28 H4          1.2184   -1.7603   -0.0194 H         1 <0>         0.1271
     29 H5         -0.9264   -0.5557    0.0083 H         1 <0>         0.1229
     30 H6          4.8777    1.1081   -0.0297 H         1 <0>         0.1261
     31 H7          7.0249   -0.0864   -0.0575 H         1 <0>         0.1367
     32 H8          4.9402   -3.8323   -0.0770 H         1 <0>         0.1367
     33 H9          2.7934   -2.6372   -0.0390 H         1 <0>         0.1289
     34 H10         6.5042   -4.7028   -0.1073 H         1 <0>         0.1476
     35 H11        11.3727   -5.6157   -0.1486 H         1 <0>         0.1688
     36 H12        13.2700   -3.9002   -0.1363 H         1 <0>         0.1891
@<TRIPOS>BOND
     1    1    6 ar
     2    1    2 ar
     3    1   25 1
     4    2    3 ar
     5    2   26 1
     6    3    4 ar
     7    3   27 1
     8    4    5 ar
     9    4    7 1
    10    5    6 ar
    11    5   28 1
    12    6   29 1
    13    7   12 ar
    14    7    8 ar
    15    8    9 ar
    16    8   30 1
    17    9   10 ar
    18    9   31 1
    19   10   11 ar
    20   10   13 1
    21   11   12 ar
    22   11   32 1
    23   12   33 1
    24   13   21 ar
    25   13   14 ar
    26   14   15 ar
    27   14   34 1
    28   15   16 ar
    29   15   22 1
    30   16   20 ar
    31   16   17 1
    32   17   18 2
    33   17   35 1
    34   18   19 1
    35   18   36 1
    36   19   20 1
    37   20   21 ar
    38   22   23 2
    39   22   24 1
@<TRIPOS>MOLECULE
CHEMBL1084928
   42    44     0     0     0
SMALL
USER_CHARGES

@<TRIPOS>ATOM
      1 C1          0.0836    1.7002    0.0040 C.3       1 <0>         0.0972
      2 N1          0.1335    0.2367    0.0459 N.pl3     1 <0>        -0.6333
      3 C2          0.2175   -0.4568    1.3337 C.3       1 <0>         0.1721
      4 C3         -1.1721   -0.7410    1.8428 C.ar      1 <0>        -0.1550
      5 C4         -1.8292    0.1818    2.6426 C.ar      1 <0>        -0.0653
      6 C5         -3.1064   -0.1222    3.0879 C.ar      1 <0>        -0.1776
      7 C6         -3.6783   -1.3263    2.7225 C.ar      1 <0>         0.0939
      8 N2         -3.0235   -2.1803    1.9606 N.ar      1 <0>        -0.4837
      9 C7         -1.8098   -1.9219    1.5138 C.ar      1 <0>         0.1164
     10 C8          0.1010   -0.4989   -1.1439 C.ar      1 <0>         0.1718
     11 C9          0.1427   -1.8896   -1.1013 C.ar      1 <0>        -0.1784
     12 C10         0.1112   -2.6243   -2.2683 C.ar      1 <0>        -0.1059
     13 C11         0.0375   -1.9807   -3.4963 C.ar      1 <0>         0.1290
     14 C12        -0.0055   -0.5784   -3.5475 C.ar      1 <0>        -0.1244
     15 C13         0.0217    0.1581   -2.3590 C.ar      1 <0>        -0.1325
     16 C14        -0.0833    0.1125   -4.8445 C.2       1 <0>         0.5270
     17 O1         -0.0233    1.3336   -4.8916 O.co2     1 <0>        -0.6789
     18 O2         -0.2079   -0.5341   -5.8756 O.co2     1 <0>        -0.6863
     19 N3          0.0066   -2.7244   -4.6745 N.am      1 <0>        -0.6326
     20 C15        -0.4541   -3.9909   -4.6601 C.2       1 <0>         0.5322
     21 O3         -0.9355   -4.4495   -3.6458 O.2       1 <0>        -0.5468
     22 C16        -0.3710   -4.8371   -5.9043 C.3       1 <0>        -0.1871
     23 C17        -1.6840   -5.1992   -6.6014 C.3       1 <0>        -0.1516
     24 C18        -0.9109   -6.2664   -5.8239 C.3       1 <0>        -0.1506
     25 H1          1.0972    2.0968   -0.0553 H         1 <0>         0.0457
     26 H2         -0.4832    2.0195   -0.8706 H         1 <0>         0.0712
     27 H3         -0.4003    2.0733    0.9066 H         1 <0>         0.0559
     28 H4          0.7569   -1.3954    1.2065 H         1 <0>         0.0857
     29 H5          0.7458    0.1715    2.0509 H         1 <0>         0.0803
     30 H6         -1.3571    1.1149    2.9125 H         1 <0>         0.1303
     31 H7         -3.6475    0.5729    3.7127 H         1 <0>         0.1318
     32 H8         -4.6729   -1.5707    3.0653 H         1 <0>         0.1523
     33 H9         -1.3067   -2.6436    0.8874 H         1 <0>         0.1567
     34 H10         0.2005   -2.3961   -0.1493 H         1 <0>         0.1148
     35 H11         0.1443   -3.7030   -2.2267 H         1 <0>         0.1396
     36 H12        -0.0147    1.2370   -2.3897 H         1 <0>         0.1298
     37 H13         0.3167   -2.3305   -5.5049 H         1 <0>         0.4265
     38 H14         0.5020   -4.6635   -6.5335 H         1 <0>         0.1235
     39 H15        -2.6079   -4.8254   -6.1600 H         1 <0>         0.0986
     40 H16        -1.6750   -5.2638   -7.6894 H         1 <0>         0.1025
     41 H17        -0.3933   -7.0331   -6.4005 H         1 <0>         0.0992
     42 H18        -1.3262   -6.5947   -4.8711 H         1 <0>         0.1060
@<TRIPOS>BOND
     1    1    2 1
     2    1   25 1
     3    1   26 1
     4    1   27 1
     5    2    3 1
     6    2   10 1
     7    3    4 1
     8    3   28 1
     9    3   29 1
    10    4    9 ar
    11    4    5 ar
    12    5    6 ar
    13    5   30 1
    14    6    7 ar
    15    6   31 1
    16    7    8 ar
    17    7   32 1
    18    8    9 ar
    19    9   33 1
    20   10   15 ar
    21   10   11 ar
    22   11   12 ar
    23   11   34 1
    24   12   13 ar
    25   12   35 1
    26   13   14 ar
    27   13   19 1
    28   14   15 ar
    29   14   16 1
    30   15   36 1
    31   16   17 2
    32   16   18 1
    33   19   20 am
    34   19   37 1
    35   20   21 2
    36   20   22 1
    37   22   24 1
    38   22   23 1
    39   22   38 1
    40   23   24 1
    41   23   39 1
    42   23   40 1
    43   24   41 1
    44   24   42 1
@<TRIPOS>MOLECULE
CHEMBL196181
   43    45     0     0     0
SMALL
USER_CHARGES

@<TRIPOS>ATOM
      1 C1          0.0182    1.4751    0.0836 C.ar      1 <0>        -0.0702
      2 C2          1.2090    2.1767    0.1043 C.ar      1 <0>        -0.1570
      3 C3          2.4142    1.4958    0.0768 C.ar      1 <0>         0.1399
      4 C4          2.4258    0.1121    0.0286 C.ar      1 <0>        -0.1162
      5 C5          1.2335   -0.5882    0.0080 C.ar      1 <0>         0.0131
      6 C6          0.0298    0.0939    0.0355 C.ar      1 <0>        -0.1281
      7 Cl1         1.2468   -2.3231   -0.0525 Cl        1 <0>        -0.0399
      8 C7          3.7369   -0.6303   -0.0019 C.3       1 <0>         0.0995
      9 O1          4.1560   -0.9118    1.3349 O.3       1 <0>        -0.3041
     10 C8          5.3296   -1.5822    1.4857 C.ar      1 <0>         0.1167
     11 C9          5.3361   -2.9696    1.5226 C.ar      1 <0>        -0.0813
     12 C10         6.5280   -3.6512    1.6758 C.ar      1 <0>        -0.0907
     13 C11         7.7201   -2.9477    1.7925 C.ar      1 <0>         0.1859
     14 C12         7.7129   -1.5591    1.7550 C.ar      1 <0>        -0.0748
     15 C13         6.5209   -0.8788    1.5970 C.ar      1 <0>        -0.0841
     16 Br1         6.5117    1.0113    1.5388 Br        1 <0>        -0.0249
     17 N1          8.9272   -3.6373    1.9480 N.am      1 <0>        -0.6577
     18 C14        10.0544   -3.1580    1.3857 C.2       1 <0>         0.6129
     19 O2         10.0382   -2.0887    0.8082 O.2       1 <0>        -0.5217
     20 C15        11.3100   -3.9327    1.4713 C.2       1 <0>        -0.1998
     21 C16        11.6535   -4.9247    0.6383 C.2       1 <0>        -0.1004
     22 C17        13.0010   -5.4933    1.0186 C.3       1 <0>        -0.0874
     23 C18        13.6343   -4.4304    1.9445 C.3       1 <0>        -0.1230
     24 C19        12.3888   -3.7125    2.5065 C.3       1 <0>        -0.0691
     25 C20        10.8317   -5.3956   -0.4907 C.2       1 <0>         0.5167
     26 O3          9.7120   -4.9358   -0.6656 O.co2     1 <0>        -0.6701
     27 O4         11.2693   -6.2461   -1.2527 O.co2     1 <0>        -0.6808
     28 Br2         3.7133   -3.9272    1.3637 Br        1 <0>        -0.0256
     29 F1          3.5783    2.1812    0.0966 F         1 <0>        -0.1207
     30 H1         -0.9217    2.0063    0.1096 H         1 <0>         0.1435
     31 H2          1.1993    3.2560    0.1416 H         1 <0>         0.1435
     32 H3         -0.9012   -0.4533    0.0193 H         1 <0>         0.1420
     33 H4          3.6124   -1.5653   -0.5481 H         1 <0>         0.0794
     34 H5          4.4899   -0.0175   -0.4974 H         1 <0>         0.0740
     35 H6          6.5329   -4.7308    1.7052 H         1 <0>         0.1483
     36 H7          8.6393   -1.0116    1.8461 H         1 <0>         0.1598
     37 H8          8.9530   -4.4603    2.4606 H         1 <0>         0.4135
     38 H9         12.8778   -6.4358    1.5521 H         1 <0>         0.0783
     39 H10        13.6161   -5.6372    0.1303 H         1 <0>         0.0793
     40 H11        14.2092   -4.9011    2.7420 H         1 <0>         0.0719
     41 H12        14.2546   -3.7378    1.3755 H         1 <0>         0.0693
     42 H13        12.5861   -2.6474    2.6277 H         1 <0>         0.0686
     43 H14        12.0966   -4.1555    3.4585 H         1 <0>         0.0718
@<TRIPOS>BOND
     1    1    6 ar
     2    1    2 ar
     3    1   30 1
     4    2    3 ar
     5    2   31 1
     6    3    4 ar
     7    3   29 1
     8    4    5 ar
     9    4    8 1
    10    5    6 ar
    11    5    7 1
    12    6   32 1
    13    8    9 1
    14    8   33 1
    15    8   34 1
    16    9   10 1
    17   10   15 ar
    18   10   11 ar
    19   11   12 ar
    20   11   28 1
    21   12   13 ar
    22   12   35 1
    23   13   14 ar
    24   13   17 1
    25   14   15 ar
    26   14   36 1
    27   15   16 1
    28   17   18 am
    29   17   37 1
    30   18   19 2
    31   18   20 1
    32   20   24 1
    33   20   21 2
    34   21   22 1
    35   21   25 1
    36   22   23 1
    37   22   38 1
    38   22   39 1
    39   23   24 1
    40   23   40 1
    41   23   41 1
    42   24   42 1
    43   24   43 1
    44   25   26 2
    45   25   27 1
@<TRIPOS>MOLECULE
CHEMBL359171
   68    72     0     0     0
SMALL
USER_CHARGES

@<TRIPOS>ATOM
      1 C1         -4.2358   -4.7584   -2.5856 C.3       1 <0>         0.0232
      2 O1         -3.0941   -4.1506   -1.9781 O.3       1 <0>        -0.3102
      3 C2         -1.9598   -4.0851   -2.7240 C.ar      1 <0>         0.1545
      4 C3         -1.9495   -4.5908   -4.0163 C.ar      1 <0>        -0.2029
      5 C4         -0.7978   -4.5251   -4.7743 C.ar      1 <0>        -0.0443
      6 C5          0.3509   -3.9520   -4.2434 C.ar      1 <0>         0.0670
      7 C6          0.3396   -3.4456   -2.9499 C.ar      1 <0>        -0.0223
      8 C7         -0.8143   -3.5074   -2.1950 C.ar      1 <0>        -0.1391
      9 N1          1.5195   -3.8854   -5.0114 N.pl3     1 <0>        -0.1853
     10 C8          2.7380   -4.3871   -4.6364 C.2       1 <0>        -0.0386
     11 C9          3.6072   -4.1173   -5.6621 C.2       1 <0>        -0.1167
     12 C10         2.8428   -3.4443   -6.6355 C.2       1 <0>        -0.0193
     13 N2          1.6084   -3.3496   -6.1756 N.2       1 <0>        -0.2208
     14 C11         3.3316   -2.9409   -7.9353 C.2       1 <0>         0.6074
     15 O2          4.4965   -3.0943   -8.2474 O.2       1 <0>        -0.5255
     16 N3          2.4861   -2.3115   -8.7752 N.am      1 <0>        -0.7123
     17 C12         2.9709   -1.8122  -10.0644 C.3       1 <0>         0.1615
     18 C13         1.8365   -1.1545  -10.8071 C.ar      1 <0>        -0.1130
     19 C14         1.0383   -1.9021  -11.6525 C.ar      1 <0>        -0.0993
     20 C15        -0.0022   -1.2988  -12.3338 C.ar      1 <0>        -0.1217
     21 C16        -0.2449    0.0521  -12.1692 C.ar      1 <0>        -0.1100
     22 C17         0.5528    0.7996  -11.3231 C.ar      1 <0>        -0.1215
     23 C18         1.5907    0.1954  -10.6385 C.ar      1 <0>        -0.0990
     24 C19         3.0528   -5.0799   -3.3780 C.2       1 <0>         0.5919
     25 O3          2.1724   -5.2993   -2.5678 O.2       1 <0>        -0.4961
     26 N4          4.3167   -5.4718   -3.1223 N.am      1 <0>        -0.6548
     27 C20         4.5962   -6.2224   -1.9823 C.ar      1 <0>         0.1717
     28 C21         3.8217   -6.0610   -0.8375 C.ar      1 <0>        -0.1350
     29 C22         4.0952   -6.8011    0.2905 C.ar      1 <0>        -0.0374
     30 C23         5.1519   -7.7157    0.2850 C.ar      1 <0>        -0.1488
     31 C24         5.9276   -7.8759   -0.8665 C.ar      1 <0>        -0.1012
     32 C25         5.6458   -7.1362   -1.9928 C.ar      1 <0>        -0.1525
     33 C26         5.4483   -8.5105    1.4927 C.2       1 <0>         0.5757
     34 O4          4.9034   -8.2421    2.5459 O.2       1 <0>        -0.5343
     35 N5          6.3231   -9.5338    1.4281 N.am      1 <0>        -0.6172
     36 C27         7.1650   -9.8695    0.2706 C.3       1 <0>         0.0877
     37 C28         7.9801  -11.1252    0.6456 C.3       1 <0>        -0.1363
     38 C29         7.1375  -11.7592    1.7838 C.3       1 <0>        -0.1346
     39 C30         6.5988  -10.4980    2.5087 C.3       1 <0>         0.1051
     40 H1         -4.5077   -4.2041   -3.4839 H         1 <0>         0.0594
     41 H2         -4.0004   -5.7889   -2.8518 H         1 <0>         0.0594
     42 H3         -5.0703   -4.7458   -1.8845 H         1 <0>         0.1051
     43 H4         -2.8426   -5.0363   -4.4289 H         1 <0>         0.1411
     44 H5         -0.7897   -4.9193   -5.7798 H         1 <0>         0.1349
     45 H6          1.2324   -3.0003   -2.5364 H         1 <0>         0.1344
     46 H7         -0.8245   -3.1098   -1.1909 H         1 <0>         0.1448
     47 H8          4.6566   -4.3674   -5.7128 H         1 <0>         0.1768
     48 H9          1.5567   -2.1892   -8.5262 H         1 <0>         0.4094
     49 H10         3.7655   -1.0851   -9.8968 H         1 <0>         0.0813
     50 H11         3.3575   -2.6436  -10.6539 H         1 <0>         0.0813
     51 H12         1.2279   -2.9576  -11.7811 H         1 <0>         0.1244
     52 H13        -0.6254   -1.8828  -12.9948 H         1 <0>         0.1248
     53 H14        -1.0574    0.5236  -12.7020 H         1 <0>         0.1240
     54 H15         0.3634    1.8551  -11.1948 H         1 <0>         0.1250
     55 H16         2.2115    0.7786   -9.9746 H         1 <0>         0.1247
     56 H17         5.0318   -5.2312   -3.7320 H         1 <0>         0.4177
     57 H18         3.0052   -5.3540   -0.8339 H         1 <0>         0.1546
     58 H19         3.4942   -6.6748    1.1788 H         1 <0>         0.1397
     59 H20         6.7451   -8.5816   -0.8738 H         1 <0>         0.1630
     60 H21         6.2422   -7.2624   -2.8842 H         1 <0>         0.1346
     61 H22         6.5376  -10.0799   -0.5956 H         1 <0>         0.0813
     62 H23         7.8394   -9.0420    0.0502 H         1 <0>         0.0800
     63 H24         8.0545  -11.8045   -0.2035 H         1 <0>         0.0862
     64 H25         8.9704  -10.8483    1.0073 H         1 <0>         0.0801
     65 H26         6.3225  -12.3592    1.3788 H         1 <0>         0.0780
     66 H27         7.7640  -12.3527    2.4496 H         1 <0>         0.0874
     67 H28         7.3502  -10.0993    3.1902 H         1 <0>         0.0711
     68 H29         5.6822  -10.7342    3.0494 H         1 <0>         0.0801
@<TRIPOS>BOND
     1    1    2 1
     2    1   40 1
     3    1   41 1
     4    1   42 1
     5    2    3 1
     6    3    8 ar
     7    3    4 ar
     8    4    5 ar
     9    4   43 1
    10    5    6 ar
    11    5   44 1
    12    6    7 ar
    13    6    9 1
    14    7    8 ar
    15    7   45 1
    16    8   46 1
    17    9   13 1
    18    9   10 1
    19   10   11 2
    20   10   24 1
    21   11   12 1
    22   11   47 1
    23   12   13 2
    24   12   14 1
    25   14   15 2
    26   14   16 am
    27   16   17 1
    28   16   48 1
    29   17   18 1
    30   17   49 1
    31   17   50 1
    32   18   23 ar
    33   18   19 ar
    34   19   20 ar
    35   19   51 1
    36   20   21 ar
    37   20   52 1
    38   21   22 ar
    39   21   53 1
    40   22   23 ar
    41   22   54 1
    42   23   55 1
    43   24   25 2
    44   24   26 am
    45   26   27 1
    46   26   56 1
    47   27   32 ar
    48   27   28 ar
    49   28   29 ar
    50   28   57 1
    51   29   30 ar
    52   29   58 1
    53   30   31 ar
    54   30   33 1
    55   31   32 ar
    56   31   59 1
    57   32   60 1
    58   33   34 2
    59   33   35 am
    60   35   39 1
    61   35   36 1
    62   36   37 1
    63   36   61 1
    64   36   62 1
    65   37   38 1
    66   37   63 1
    67   37   64 1
    68   38   39 1
    69   38   65 1
    70   38   66 1
    71   39   67 1
    72   39   68 1
@<TRIPOS>MOLECULE
CHEMBL1088742
   30    31     0     0     0
SMALL
USER_CHARGES

@<TRIPOS>ATOM
      1 C1         -0.2460    1.2558    0.0062 C.ar      1 <0>        -0.1602
      2 C2          0.7933    1.8955   -0.6515 C.ar      1 <0>        -0.1055
      3 C3          2.0524    1.3318   -0.6840 C.ar      1 <0>        -0.1522
      4 C4          2.2871    0.1157   -0.0558 C.ar      1 <0>         0.1918
      5 C5          1.2369   -0.5355    0.6115 C.ar      1 <0>        -0.1707
      6 C6         -0.0336    0.0493    0.6352 C.ar      1 <0>        -0.0645
      7 C7          1.4713   -1.8245    1.2809 C.2       1 <0>         0.5281
      8 O1          0.5345   -2.4356    1.7767 O.co2     1 <0>        -0.6765
      9 O2          2.6031   -2.2852    1.3418 O.co2     1 <0>        -0.6918
     10 N1          3.5557   -0.4546   -0.0878 N.am      1 <0>        -0.6450
     11 C8          4.6420    0.3267   -0.2492 C.2       1 <0>         0.7002
     12 O3          4.5239    1.5367   -0.2624 O.2       1 <0>        -0.5682
     13 N2          5.8591   -0.2333   -0.3958 N.am      1 <0>        -0.6820
     14 C9          6.9723    0.5719   -0.6616 C.ar      1 <0>         0.2043
     15 C10         7.0670    1.8364   -0.0958 C.ar      1 <0>        -0.1092
     16 C11         8.1677    2.6299   -0.3600 C.ar      1 <0>        -0.0037
     17 C12         9.1746    2.1650   -1.1876 C.ar      1 <0>        -0.1265
     18 C13         9.0824    0.9053   -1.7531 C.ar      1 <0>        -0.0038
     19 C14         7.9867    0.1055   -1.4871 C.ar      1 <0>        -0.1394
     20 Cl1        10.3472    0.3263   -2.7917 Cl        1 <0>        -0.0586
     21 Cl2         8.2866    4.2111    0.3465 Cl        1 <0>        -0.0556
     22 H1         -1.2264    1.7082    0.0291 H         1 <0>         0.1144
     23 H2          0.6162    2.8412   -1.1420 H         1 <0>         0.1154
     24 H3          2.8562    1.8368   -1.1990 H         1 <0>         0.1401
     25 H4         -0.8468   -0.4445    1.1465 H         1 <0>         0.1288
     26 H5          3.6584   -1.4146    0.0061 H         1 <0>         0.4264
     27 H6          5.9634   -1.1944   -0.3171 H         1 <0>         0.4158
     28 H7          6.2812    2.1998    0.5498 H         1 <0>         0.1615
     29 H8         10.0338    2.7864   -1.3928 H         1 <0>         0.1428
     30 H9          7.9175   -0.8794   -1.9249 H         1 <0>         0.1437
@<TRIPOS>BOND
     1    1    6 ar
     2    1    2 ar
     3    1   22 1
     4    2    3 ar
     5    2   23 1
     6    3    4 ar
     7    3   24 1
     8    4    5 ar
     9    4   10 1
    10    5    6 ar
    11    5    7 1
    12    6   25 1
    13    7    8 2
    14    7    9 1
    15   10   11 am
    16   10   26 1
    17   11   12 2
    18   11   13 am
    19   13   14 1
    20   13   27 1
    21   14   19 ar
    22   14   15 ar
    23   15   16 ar
    24   15   28 1
    25   16   17 ar
    26   16   21 1
    27   17   18 ar
    28   17   29 1
    29   18   19 ar
    30   18   20 1
    31   19   30 1
@<TRIPOS>MOLECULE
CHEMBL1088743
   36    38     0     0     0
SMALL
USER_CHARGES

@<TRIPOS>ATOM
      1 C1          0.1778    1.4016    0.1760 C.ar      1 <0>        -0.1167
      2 C2          1.3748    2.0963    0.1555 C.ar      1 <0>        -0.1014
      3 C3          2.5776    1.4143    0.1128 C.ar      1 <0>        -0.1121
      4 C4          2.5915    0.0338    0.0905 C.ar      1 <0>        -0.0193
      5 C5          1.3862   -0.6738    0.1111 C.ar      1 <0>        -0.0055
      6 C6          0.1759    0.0227    0.1541 C.ar      1 <0>        -0.0833
      7 C7          1.3920   -2.1495    0.0870 C.2       1 <0>         0.0099
      8 C8          0.7019   -2.9611    0.9375 C.2       1 <0>        -0.1739
      9 C9          0.9861   -4.2825    0.5671 C.2       1 <0>        -0.1890
     10 C10         1.8475   -4.2180   -0.5059 C.2       1 <0>         0.0694
     11 O1          2.0757   -2.9181   -0.7826 O.3       1 <0>        -0.1393
     12 C11         2.4133   -5.3618   -1.2240 C.2       1 <0>         0.0683
     13 N1          3.2200   -5.1664   -2.2273 N.2       1 <0>        -0.2113
     14 N2          3.7613   -6.2608   -2.9144 N.pl3     1 <0>        -0.5433
     15 C12         4.6195   -6.0530   -3.9818 C.ar      1 <0>         0.2351
     16 C13         4.8583   -4.7641   -4.4467 C.ar      1 <0>        -0.1818
     17 C14         5.7126   -4.5603   -5.5097 C.ar      1 <0>        -0.0891
     18 C15         6.3405   -5.6341   -6.1235 C.ar      1 <0>        -0.1843
     19 C16         6.1182   -6.9180   -5.6792 C.ar      1 <0>        -0.0461
     20 C17         5.2590   -7.1434   -4.5981 C.ar      1 <0>        -0.1993
     21 C18         5.0216   -8.5109   -4.1138 C.2       1 <0>         0.5318
     22 O2          5.6573   -9.4452   -4.5834 O.co2     1 <0>        -0.6750
     23 O3          4.1884   -8.7150   -3.2412 O.co2     1 <0>        -0.6925
     24 Cl1         4.1016   -0.8207    0.0365 Cl        1 <0>        -0.0468
     25 H1         -0.7571    1.9409    0.2138 H         1 <0>         0.1341
     26 H2          1.3697    3.1761    0.1724 H         1 <0>         0.1340
     27 H3          3.5078    1.9628    0.0966 H         1 <0>         0.1372
     28 H4         -0.7591   -0.5175    0.1702 H         1 <0>         0.1379
     29 H5          0.0579   -2.6453    1.7450 H         1 <0>         0.1519
     30 H6          0.6036   -5.1786    1.0330 H         1 <0>         0.1573
     31 H7          2.1615   -6.3676   -0.9214 H         1 <0>         0.1454
     32 H8          3.5352   -7.1641   -2.6426 H         1 <0>         0.4187
     33 H9          4.3738   -3.9220   -3.9749 H         1 <0>         0.1248
     34 H10         5.8939   -3.5574   -5.8671 H         1 <0>         0.1136
     35 H11         7.0076   -5.4619   -6.9552 H         1 <0>         0.1128
     36 H12         6.6098   -7.7498   -6.1617 H         1 <0>         0.1278
@<TRIPOS>BOND
     1    1    6 ar
     2    1    2 ar
     3    1   25 1
     4    2    3 ar
     5    2   26 1
     6    3    4 ar
     7    3   27 1
     8    4    5 ar
     9    4   24 1
    10    5    6 ar
    11    5    7 1
    12    6   28 1
    13    7   11 1
    14    7    8 2
    15    8    9 1
    16    8   29 1
    17    9   10 2
    18    9   30 1
    19   10   11 1
    20   10   12 1
    21   12   13 2
    22   12   31 1
    23   13   14 1
    24   14   15 1
    25   14   32 1
    26   15   20 ar
    27   15   16 ar
    28   16   17 ar
    29   16   33 1
    30   17   18 ar
    31   17   34 1
    32   18   19 ar
    33   18   35 1
    34   19   20 ar
    35   19   36 1
    36   20   21 1
    37   21   22 2
    38   21   23 1
@<TRIPOS>MOLECULE
CHEMBL195163
   41    43     0     0     0
SMALL
USER_CHARGES

@<TRIPOS>ATOM
      1 C1          0.0171    1.4013   -0.8668 C.ar      1 <0>        -0.0739
      2 C2          1.2081    2.0981   -0.8198 C.ar      1 <0>        -0.1249
      3 C3          2.3527    1.4877   -0.3102 C.ar      1 <0>         0.0032
      4 C4          2.2903    0.1745    0.1506 C.ar      1 <0>        -0.1143
      5 C5          1.0914   -0.5170    0.0997 C.ar      1 <0>         0.1087
      6 C6         -0.0441    0.0984   -0.4095 C.ar      1 <0>        -0.1913
      7 O1          1.0267   -1.7984    0.5478 O.3       1 <0>        -0.3086
      8 C7         -0.2419   -2.4512    0.4654 C.3       1 <0>         0.6045
      9 F1         -0.6560   -2.4986   -0.8701 F         1 <0>        -0.1647
     10 F2         -0.1298   -3.7529    0.9654 F         1 <0>        -0.1307
     11 F3         -1.1817   -1.7410    1.2201 F         1 <0>        -0.1654
     12 C8          3.6337    2.2339   -0.2590 C.ar      1 <0>        -0.0260
     13 C9          4.7789    1.6200    0.2457 C.ar      1 <0>        -0.1297
     14 C10         5.9706    2.3157    0.2928 C.ar      1 <0>         0.1291
     15 C11         6.0288    3.6292   -0.1633 C.ar      1 <0>         0.1087
     16 C12         4.8862    4.2432   -0.6674 C.ar      1 <0>         0.0941
     17 C13         3.6945    3.5478   -0.7209 C.ar      1 <0>        -0.1301
     18 F4          4.9441    5.5185   -1.1094 F         1 <0>        -0.1284
     19 N1          7.2361    4.3328   -0.1146 N.am      1 <0>        -0.6777
     20 C14         8.4021    3.6842   -0.3049 C.2       1 <0>         0.5415
     21 O2          8.4013    2.4996   -0.5771 O.2       1 <0>        -0.4037
     22 C15         9.6816    4.4133   -0.1826 C.2       1 <0>        -0.2363
     23 C16        10.9057    3.9195   -0.4534 C.2       1 <0>        -0.0844
     24 C17        11.9151    5.0138   -0.1886 C.3       1 <0>         0.0745
     25 O3         11.1655    6.2426   -0.1635 O.3       1 <0>        -0.3701
     26 C18         9.8500    5.8487    0.2625 C.3       1 <0>         0.0891
     27 C19        11.2071    2.5557   -0.9235 C.2       1 <0>         0.5123
     28 O4         10.3142    1.7234   -0.9982 O.co2     1 <0>        -0.6173
     29 O5         12.3501    2.2563   -1.2389 O.co2     1 <0>        -0.6884
     30 F5          7.0806    1.7212    0.7824 F         1 <0>        -0.0947
     31 H1         -0.8701    1.8771   -1.2578 H         1 <0>         0.1367
     32 H2          1.2528    3.1159   -1.1783 H         1 <0>         0.1368
     33 H3          3.1745   -0.3031    0.5461 H         1 <0>         0.1454
     34 H4         -0.9782   -0.4423   -0.4481 H         1 <0>         0.1338
     35 H5          4.7340    0.6008    0.6001 H         1 <0>         0.1485
     36 H6          2.8091    4.0229   -1.1167 H         1 <0>         0.1480
     37 H7          7.2345    5.2876    0.0561 H         1 <0>         0.4082
     38 H8         12.4024    4.8511    0.7728 H         1 <0>         0.0801
     39 H9         12.6569    5.0422   -0.9867 H         1 <0>         0.1071
     40 H10         9.0963    6.4793   -0.2090 H         1 <0>         0.0831
     41 H11         9.7731    5.9172    1.3476 H         1 <0>         0.0671
@<TRIPOS>BOND
     1    1    6 ar
     2    1    2 ar
     3    1   31 1
     4    2    3 ar
     5    2   32 1
     6    3    4 ar
     7    3   12 1
     8    4    5 ar
     9    4   33 1
    10    5    6 ar
    11    5    7 1
    12    6   34 1
    13    7    8 1
    14    8    9 1
    15    8   10 1
    16    8   11 1
    17   12   17 ar
    18   12   13 ar
    19   13   14 ar
    20   13   35 1
    21   14   15 ar
    22   14   30 1
    23   15   16 ar
    24   15   19 1
    25   16   17 ar
    26   16   18 1
    27   17   36 1
    28   19   20 am
    29   19   37 1
    30   20   21 2
    31   20   22 1
    32   22   26 1
    33   22   23 2
    34   23   24 1
    35   23   27 1
    36   24   25 1
    37   24   38 1
    38   24   39 1
    39   25   26 1
    40   26   40 1
    41   26   41 1
    42   27   28 2
    43   27   29 1
@<TRIPOS>MOLECULE
CHEMBL139647
   44    46     0     0     0
SMALL
USER_CHARGES

@<TRIPOS>ATOM
      1 C1         -0.0970    1.2130   -0.0587 C.ar      1 <0>        -0.1300
      2 C2          1.0858    1.9034   -0.2465 C.ar      1 <0>        -0.1192
      3 C3          2.2896    1.2239   -0.2502 C.ar      1 <0>        -0.1179
      4 C4          2.3107   -0.1459   -0.0657 C.ar      1 <0>        -0.0757
      5 C5          1.1280   -0.8362    0.1230 C.ar      1 <0>        -0.1187
      6 C6         -0.0760   -0.1569    0.1253 C.ar      1 <0>        -0.1199
      7 C7          3.6230   -0.8868   -0.0708 C.3       1 <0>        -0.0775
      8 C8          4.1819   -0.9438    1.3523 C.3       1 <0>        -0.0634
      9 C9          5.4942   -1.6847    1.3472 C.ar      1 <0>        -0.1227
     10 C10         5.5131   -3.0558    1.5263 C.ar      1 <0>        -0.0988
     11 C11         6.7140   -3.7377    1.5227 C.ar      1 <0>        -0.1641
     12 C12         7.9037   -3.0449    1.3384 C.ar      1 <0>         0.1781
     13 C13         7.8812   -1.6679    1.1583 C.ar      1 <0>        -0.1143
     14 C14         6.6764   -0.9927    1.1579 C.ar      1 <0>        -0.0980
     15 N1          9.1215   -3.7323    1.3346 N.pl3     1 <0>        -0.6773
     16 C15        10.2406   -3.1365    1.8291 C.2       1 <0>         0.5466
     17 O1         10.1550   -1.9321    2.4237 O.3       1 <0>        -0.6168
     18 C16        11.4792   -3.7755    1.7193 C.2       1 <0>        -0.4433
     19 C17        12.6380   -3.1586    2.2313 C.2       1 <0>         0.4451
     20 C18        13.9731   -3.8474    2.1131 C.3       1 <0>        -0.1987
     21 C19        15.1924   -2.9765    1.8035 C.3       1 <0>        -0.1606
     22 C20        15.0107   -3.5688    3.2024 C.3       1 <0>        -0.1615
     23 O2         12.5607   -2.0714    2.7682 O.2       1 <0>        -0.5019
     24 C21        11.5703   -5.0569    1.0867 C.1       1 <0>         0.3024
     25 N2         11.6425   -6.0734    0.5847 N.1       1 <0>        -0.5444
     26 H1         -1.0372    1.7444   -0.0513 H         1 <0>         0.1181
     27 H2          1.0693    2.9736   -0.3906 H         1 <0>         0.1197
     28 H3          3.2136    1.7632   -0.3977 H         1 <0>         0.1221
     29 H4          1.1444   -1.9064    0.2668 H         1 <0>         0.1210
     30 H5         -1.0000   -0.6963    0.2724 H         1 <0>         0.1192
     31 H6          3.4667   -1.9001   -0.4407 H         1 <0>         0.0732
     32 H7          4.3302   -0.3686   -0.7184 H         1 <0>         0.0744
     33 H8          4.3382    0.0695    1.7222 H         1 <0>         0.0687
     34 H9          3.4747   -1.4619    2.0000 H         1 <0>         0.0673
     35 H10         4.5877   -3.5938    1.6696 H         1 <0>         0.1157
     36 H11         6.7282   -4.8084    1.6633 H         1 <0>         0.1172
     37 H12         8.8045   -1.1263    1.0148 H         1 <0>         0.1417
     38 H13         6.6579    0.0775    1.0139 H         1 <0>         0.1171
     39 H14         9.1685   -4.6337    0.9795 H         1 <0>         0.4001
     40 H15        13.9488   -4.8499    1.6858 H         1 <0>         0.1024
     41 H16        15.9704   -3.4059    1.1723 H         1 <0>         0.0889
     42 H17        15.0288   -1.9053    1.6853 H         1 <0>         0.0979
     43 H18        14.7276   -2.8873    4.0046 H         1 <0>         0.0993
     44 H19        15.6692   -4.3879    3.4916 H         1 <0>         0.0886
@<TRIPOS>BOND
     1    1    6 ar
     2    1    2 ar
     3    1   26 1
     4    2    3 ar
     5    2   27 1
     6    3    4 ar
     7    3   28 1
     8    4    5 ar
     9    4    7 1
    10    5    6 ar
    11    5   29 1
    12    6   30 1
    13    7    8 1
    14    7   31 1
    15    7   32 1
    16    8    9 1
    17    8   33 1
    18    8   34 1
    19    9   14 ar
    20    9   10 ar
    21   10   11 ar
    22   10   35 1
    23   11   12 ar
    24   11   36 1
    25   12   13 ar
    26   12   15 1
    27   13   14 ar
    28   13   37 1
    29   14   38 1
    30   15   16 1
    31   15   39 1
    32   16   17 1
    33   16   18 2
    34   18   24 1
    35   18   19 1
    36   19   23 2
    37   19   20 1
    38   20   22 1
    39   20   21 1
    40   20   40 1
    41   21   22 1
    42   21   41 1
    43   21   42 1
    44   22   43 1
    45   22   44 1
    46   24   25 3
@<TRIPOS>MOLECULE
CHEMBL139647__1
   45    47     0     0     0
SMALL
NO_CHARGES

@<TRIPOS>ATOM
      1 C1         -0.1323    1.1800    0.0642 C.ar      1 <0>        -0.1252
      2 C2          1.0454    1.8795   -0.1213 C.ar      1 <0>        -0.1183
      3 C3          2.2529    1.2069   -0.1415 C.ar      1 <0>        -0.1179
      4 C4          2.2827   -0.1652    0.0242 C.ar      1 <0>        -0.0825
      5 C5          1.1050   -0.8646    0.2106 C.ar      1 <0>        -0.1175
      6 C6         -0.1026   -0.1921    0.2294 C.ar      1 <0>        -0.1180
      7 C7          3.5990   -0.8986    0.0012 C.3       1 <0>        -0.0760
      8 C8          4.1669   -0.9718    1.4200 C.3       1 <0>        -0.0726
      9 C9          5.4832   -1.7052    1.3969 C.ar      1 <0>        -0.0922
     10 C10         5.5108   -3.0784    1.5571 C.ar      1 <0>        -0.0953
     11 C11         6.7155   -3.7535    1.5365 C.ar      1 <0>        -0.1149
     12 C12         7.9000   -3.0518    1.3541 C.ar      1 <0>         0.1376
     13 C13         7.8688   -1.6728    1.1931 C.ar      1 <0>        -0.1381
     14 C14         6.6604   -1.0042    1.2099 C.ar      1 <0>        -0.0959
     15 N1          9.1222   -3.7327    1.3332 N.am      1 <0>        -0.6674
     16 C15         9.1898   -4.9806    0.8287 C.2       1 <0>         0.5256
     17 O1          8.2143   -5.4772    0.3063 O.2       1 <0>        -0.4694
     18 C16        10.4774   -5.7589    0.9136 C.3       1 <0>        -0.0517
     19 C17        10.2880   -7.1138    0.2816 C.2       1 <0>         0.3955
     20 C18        11.0829   -8.2943    0.7773 C.3       1 <0>        -0.2231
     21 C19        10.3681   -9.6448    0.8550 C.3       1 <0>        -0.1425
     22 C20        11.4162   -9.3953   -0.2314 C.3       1 <0>        -0.1478
     23 O2          9.4994   -7.2536   -0.6222 O.2       1 <0>        -0.3894
     24 C21        11.5395   -5.0296    0.2018 C.1       1 <0>         0.2021
     25 N2         12.3592   -4.4667   -0.3476 N.1       1 <0>        -0.3712
     26 H1         -1.0754    1.7060    0.0845 H         1 <0>         0.1208
     27 H2          1.0222    2.9515   -0.2507 H         1 <0>         0.1214
     28 H3          3.1731    1.7533   -0.2871 H         1 <0>         0.1208
     29 H4          1.1282   -1.9366    0.3397 H         1 <0>         0.1213
     30 H5         -1.0228   -0.7386    0.3746 H         1 <0>         0.1216
     31 H6          3.4461   -1.9076   -0.3815 H         1 <0>         0.0747
     32 H7          4.2994   -0.3677   -0.6436 H         1 <0>         0.0739
     33 H8          4.3199    0.0373    1.8026 H         1 <0>         0.0744
     34 H9          3.4665   -1.5026    2.0647 H         1 <0>         0.0748
     35 H10         4.5893   -3.6236    1.6989 H         1 <0>         0.1271
     36 H11         6.7365   -4.8259    1.6624 H         1 <0>         0.1350
     37 H12         8.7883   -1.1241    1.0515 H         1 <0>         0.1260
     38 H13         6.6352    0.0678    1.0806 H         1 <0>         0.1273
     39 H14         9.9208   -3.3065    1.6818 H         1 <0>         0.4126
     40 H15        11.8252   -8.0726    1.5440 H         1 <0>         0.1319
     41 H16        10.6400  -10.3119    1.6730 H         1 <0>         0.1104
     42 H17         9.3229   -9.6795    0.5474 H         1 <0>         0.1067
     43 H18        11.0606   -9.2659   -1.2536 H         1 <0>         0.1057
     44 H19        12.3777   -9.8983   -0.1280 H         1 <0>         0.1095
     45 H20        10.7593   -5.8820    1.9594 H         1 <0>         0.1704
@<TRIPOS>BOND
     1    1    6 ar
     2    1    2 ar
     3    1   26 1
     4    2    3 ar
     5    2   27 1
     6    3    4 ar
     7    3   28 1
     8    4    5 ar
     9    4    7 1
    10    5    6 ar
    11    5   29 1
    12    6   30 1
    13    7    8 1
    14    7   31 1
    15    7   32 1
    16    8    9 1
    17    8   33 1
    18    8   34 1
    19    9   14 ar
    20    9   10 ar
    21   10   11 ar
    22   10   35 1
    23   11   12 ar
    24   11   36 1
    25   12   13 ar
    26   12   15 1
    27   13   14 ar
    28   13   37 1
    29   14   38 1
    30   15   16 am
    31   15   39 1
    32   16   17 2
    33   16   18 1
    34   18   24 1
    35   18   45 1
    36   18   19 1
    37   19   23 2
    38   19   20 1
    39   20   22 1
    40   20   21 1
    41   20   40 1
    42   21   22 1
    43   21   41 1
    44   21   42 1
    45   22   43 1
    46   22   44 1
    47   24   25 3
@<TRIPOS>MOLECULE
CHEMBL49129
   43    46     0     0     0
SMALL
USER_CHARGES

@<TRIPOS>ATOM
      1 C1          0.0468    1.5019   -0.0016 C.3       1 <0>        -0.0982
      2 C2         -0.0709   -0.0004    0.0184 C.ar      1 <0>        -0.1407
      3 C3         -0.2847   -0.7025   -1.1615 C.ar      1 <0>        -0.0128
      4 C4         -0.3886   -2.1593   -1.0652 C.ar      1 <0>        -0.0908
      5 C5         -0.6027   -2.9537   -2.1959 C.ar      1 <0>        -0.0921
      6 C6         -0.6928   -4.3096   -2.0600 C.ar      1 <0>         0.0714
      7 C7         -0.5742   -4.9104   -0.8061 C.ar      1 <0>        -0.1268
      8 C8         -0.3660   -4.1646    0.3127 C.ar      1 <0>        -0.0807
      9 C9         -0.2669   -2.7649    0.2103 C.ar      1 <0>         0.1529
     10 N1         -0.0619   -2.0079    1.2910 N.ar      1 <0>        -0.5423
     11 C10         0.0399   -0.7011    1.2248 C.ar      1 <0>         0.3582
     12 O1          0.2546   -0.0039    2.3679 O.3       1 <0>        -0.2478
     13 C11         0.4818   -0.7049    3.5097 C.ar      1 <0>         0.1110
     14 C12         1.6723   -1.4010    3.6717 C.ar      1 <0>        -0.1121
     15 C13         1.9075   -2.1148    4.8315 C.ar      1 <0>        -0.1028
     16 C14         0.9600   -2.1398    5.8355 C.ar      1 <0>        -0.1134
     17 C15        -0.2373   -1.4440    5.6808 C.ar      1 <0>        -0.0376
     18 C16        -0.4720   -0.7204    4.5142 C.ar      1 <0>        -0.1080
     19 C17        -1.2574   -1.4698    6.7582 C.ar      1 <0>        -0.0388
     20 C18        -2.4573   -0.7789    6.6018 C.ar      1 <0>        -0.1100
     21 C19        -3.4025   -0.8063    7.6071 C.ar      1 <0>        -0.1166
     22 C20        -3.1605   -1.5178    8.7683 C.ar      1 <0>        -0.1220
     23 C21        -1.9709   -2.2051    8.9291 C.ar      1 <0>        -0.1192
     24 C22        -1.0213   -2.1896    7.9276 C.ar      1 <0>        -0.1112
     25 F1         -0.8996   -5.0780   -3.1518 F         1 <0>        -0.1424
     26 C23        -0.4027   -0.0077   -2.4586 C.2       1 <0>         0.5345
     27 O2          0.5802    0.1219   -3.1744 O.co2     1 <0>        -0.6659
     28 O3         -1.4835    0.4382   -2.8173 O.co2     1 <0>        -0.6661
     29 H1          1.0981    1.7832   -0.0624 H         1 <0>         0.0689
     30 H2         -0.4856    1.8965   -0.8671 H         1 <0>         0.0785
     31 H3         -0.3872    1.9125    0.9101 H         1 <0>         0.0674
     32 H4         -0.6965   -2.4978   -3.1705 H         1 <0>         0.1444
     33 H5         -0.6491   -5.9846   -0.7224 H         1 <0>         0.1374
     34 H6         -0.2771   -4.6453    1.2757 H         1 <0>         0.1397
     35 H7          2.4163   -1.3847    2.8891 H         1 <0>         0.1262
     36 H8          2.8349   -2.6549    4.9527 H         1 <0>         0.1290
     37 H9          1.1467   -2.6989    6.7405 H         1 <0>         0.1270
     38 H10        -1.3967   -0.1762    4.3913 H         1 <0>         0.1316
     39 H11        -2.6471   -0.2228    5.6957 H         1 <0>         0.1264
     40 H12        -4.3327   -0.2708    7.4870 H         1 <0>         0.1240
     41 H13        -3.9029   -1.5365    9.5525 H         1 <0>         0.1212
     42 H14        -1.7867   -2.7585    9.8381 H         1 <0>         0.1230
     43 H15        -0.0950   -2.7309    8.0520 H         1 <0>         0.1256
@<TRIPOS>BOND
     1    1    2 1
     2    1   29 1
     3    1   30 1
     4    1   31 1
     5    2   11 ar
     6    2    3 ar
     7    3    4 ar
     8    3   26 1
     9    4    9 ar
    10    4    5 ar
    11    5    6 ar
    12    5   32 1
    13    6    7 ar
    14    6   25 1
    15    7    8 ar
    16    7   33 1
    17    8    9 ar
    18    8   34 1
    19    9   10 ar
    20   10   11 ar
    21   11   12 1
    22   12   13 1
    23   13   18 ar
    24   13   14 ar
    25   14   15 ar
    26   14   35 1
    27   15   16 ar
    28   15   36 1
    29   16   17 ar
    30   16   37 1
    31   17   18 ar
    32   17   19 1
    33   18   38 1
    34   19   24 ar
    35   19   20 ar
    36   20   21 ar
    37   20   39 1
    38   21   22 ar
    39   21   40 1
    40   22   23 ar
    41   22   41 1
    42   23   24 ar
    43   23   42 1
    44   24   43 1
    45   26   27 2
    46   26   28 1
@<TRIPOS>MOLECULE
CHEMBL326692
   40    44     0     0     0
SMALL
USER_CHARGES

@<TRIPOS>ATOM
      1 C1          0.0079    1.3308    0.2233 C.ar      1 <0>        -0.1214
      2 C2          1.1818    2.0486    0.1451 C.ar      1 <0>        -0.0697
      3 C3          2.4034    1.3815    0.1231 C.ar      1 <0>        -0.0411
      4 C4          2.4466   -0.0110    0.2112 C.ar      1 <0>        -0.0469
      5 C5          1.2726   -0.7281    0.2821 C.ar      1 <0>        -0.1192
      6 C6          0.0472   -0.0618    0.2869 C.ar      1 <0>        -0.0045
      7 C7         -1.2159   -0.8356    0.3597 C.2       1 <0>        -0.1423
      8 C8         -2.5826   -0.3011    0.3687 C.2       1 <0>        -0.2034
      9 C9         -3.3970   -1.3669    0.4445 C.2       1 <0>        -0.0378
     10 O1         -2.6537   -2.4832    0.4815 O.3       1 <0>        -0.1821
     11 C10        -1.3475   -2.1864    0.4258 C.2       1 <0>        -0.0213
     12 C11         3.7703   -0.7262    0.2587 C.3       1 <0>        -0.0800
     13 C12         4.7928   -0.0260   -0.6310 C.3       1 <0>        -0.0711
     14 C13         4.8479    1.4445   -0.3178 C.ar      1 <0>        -0.1285
     15 C14         3.6762    2.1397    0.0273 C.ar      1 <0>         0.2118
     16 N1          3.6834    3.4353    0.2714 N.ar      1 <0>        -0.4872
     17 C15         4.7963    4.1673    0.2302 C.ar      1 <0>         0.1218
     18 C16         4.7657    5.5499    0.4954 C.ar      1 <0>        -0.0708
     19 C17         5.9188    6.2703    0.4576 C.ar      1 <0>        -0.1355
     20 C18         7.1386    5.6622    0.1570 C.ar      1 <0>         0.0805
     21 C19         7.2048    4.3243   -0.1107 C.ar      1 <0>        -0.1022
     22 C20         6.0374    3.5562   -0.0820 C.ar      1 <0>        -0.0694
     23 C21         6.0573    2.1214   -0.3737 C.ar      1 <0>        -0.0362
     24 C22         7.3128    1.4241   -0.7140 C.2       1 <0>         0.5321
     25 O2          7.6558    1.3177   -1.8830 O.co2     1 <0>        -0.6691
     26 O3          8.0102    0.9526    0.1731 O.co2     1 <0>        -0.6697
     27 F1          8.2666    6.4052    0.1302 F         1 <0>        -0.1417
     28 H1         -0.9410    1.8463    0.2398 H         1 <0>         0.1239
     29 H2          1.1539    3.1273    0.1005 H         1 <0>         0.1360
     30 H3          1.3010   -1.8065    0.3341 H         1 <0>         0.1249
     31 H4         -2.8743    0.7377    0.3236 H         1 <0>         0.1521
     32 H5         -4.4761   -1.3309    0.4716 H         1 <0>         0.2028
     33 H6         -0.5369   -2.9000    0.4349 H         1 <0>         0.2060
     34 H7          4.1357   -0.7377    1.2855 H         1 <0>         0.0831
     35 H8          3.6369   -1.7517   -0.0859 H         1 <0>         0.0827
     36 H9          5.7759   -0.4661   -0.4639 H         1 <0>         0.0915
     37 H10         4.5123   -0.1606   -1.6757 H         1 <0>         0.0788
     38 H11         3.8299    6.0366    0.7276 H         1 <0>         0.1413
     39 H12         5.8901    7.3302    0.6631 H         1 <0>         0.1377
     40 H13         8.1532    3.8629   -0.3431 H         1 <0>         0.1438
@<TRIPOS>BOND
     1    1    6 ar
     2    1    2 ar
     3    1   28 1
     4    2    3 ar
     5    2   29 1
     6    3   15 1
     7    3    4 ar
     8    4    5 ar
     9    4   12 1
    10    5    6 ar
    11    5   30 1
    12    6    7 1
    13    7   11 2
    14    7    8 1
    15    8    9 2
    16    8   31 1
    17    9   10 1
    18    9   32 1
    19   10   11 1
    20   11   33 1
    21   12   13 1
    22   12   34 1
    23   12   35 1
    24   13   14 1
    25   13   36 1
    26   13   37 1
    27   14   23 ar
    28   14   15 ar
    29   15   16 ar
    30   16   17 ar
    31   17   22 ar
    32   17   18 ar
    33   18   19 ar
    34   18   38 1
    35   19   20 ar
    36   19   39 1
    37   20   21 ar
    38   20   27 1
    39   21   22 ar
    40   21   40 1
    41   22   23 ar
    42   23   24 1
    43   24   25 2
    44   24   26 1
@<TRIPOS>MOLECULE
CHEMBL39396
   48    51     0     0     0
SMALL
USER_CHARGES

@<TRIPOS>ATOM
      1 C1         -0.0030    1.5030    0.0089 C.3       1 <0>        -0.1095
      2 C2          0.0093   -0.0040    0.0013 C.ar      1 <0>        -0.1307
      3 C3         -0.0986   -0.7002   -1.1963 C.ar      1 <0>        -0.0371
      4 C4         -0.0788   -2.1621   -1.1267 C.ar      1 <0>        -0.0697
      5 C5         -0.1808   -2.9497   -2.2773 C.ar      1 <0>        -0.1023
      6 C6         -0.1577   -4.3109   -2.1673 C.ar      1 <0>         0.0800
      7 C7         -0.0334   -4.9246   -0.9197 C.ar      1 <0>        -0.1357
      8 C8          0.0675   -4.1866    0.2184 C.ar      1 <0>        -0.0707
      9 C9          0.0478   -2.7807    0.1436 C.ar      1 <0>         0.1194
     10 N1          0.1464   -2.0325    1.2424 N.ar      1 <0>        -0.4848
     11 C10         0.1357   -0.7170    1.2028 C.ar      1 <0>         0.2077
     12 C11         0.2562    0.0380    2.4734 C.ar      1 <0>        -0.0420
     13 C12         0.9389    1.2530    2.5032 C.ar      1 <0>        -0.0987
     14 C13         1.0475    1.9514    3.6885 C.ar      1 <0>        -0.1230
     15 C14         0.4809    1.4478    4.8456 C.ar      1 <0>        -0.0720
     16 C15        -0.1973    0.2424    4.8221 C.ar      1 <0>        -0.1227
     17 C16        -0.3176   -0.4618    3.6413 C.ar      1 <0>        -0.0768
     18 C17         0.6034    2.2151    6.1369 C.3       1 <0>        -0.0456
     19 C18         1.3334    1.3574    7.1724 C.3       1 <0>        -0.1110
     20 C19         1.4578    2.1364    8.4834 C.3       1 <0>        -0.1195
     21 C20         0.0619    2.4859    9.0033 C.3       1 <0>        -0.1203
     22 C21        -0.6681    3.3435    7.9678 C.3       1 <0>        -0.1196
     23 C22        -0.7925    2.5646    6.6568 C.3       1 <0>        -0.1114
     24 F1         -0.2567   -5.0723   -3.2789 F         1 <0>        -0.1419
     25 C23        -0.2283    0.0056   -2.4860 C.2       1 <0>         0.5326
     26 O1          0.7655    0.2325   -3.1615 O.co2     1 <0>        -0.6701
     27 O2         -1.3296    0.3636   -2.8790 O.co2     1 <0>        -0.6700
     28 H1          1.0204    1.8749   -0.0406 H         1 <0>         0.0717
     29 H2         -0.5636    1.8660   -0.8526 H         1 <0>         0.0772
     30 H3         -0.4747    1.8579    0.9252 H         1 <0>         0.0715
     31 H4         -0.2777   -2.4846   -3.2472 H         1 <0>         0.1437
     32 H5         -0.0175   -6.0026   -0.8571 H         1 <0>         0.1375
     33 H6          0.1627   -4.6772    1.1759 H         1 <0>         0.1410
     34 H7          1.3823    1.6468    1.6006 H         1 <0>         0.1380
     35 H8          1.5762    2.8929    3.7128 H         1 <0>         0.1227
     36 H9         -0.6374   -0.1462    5.7286 H         1 <0>         0.1202
     37 H10        -0.8515   -1.4004    3.6231 H         1 <0>         0.1270
     38 H11         1.1663    3.1320    5.9626 H         1 <0>         0.0764
     39 H12         0.7705    0.4404    7.3466 H         1 <0>         0.0643
     40 H13         2.3278    1.1084    6.8020 H         1 <0>         0.0633
     41 H14         1.9779    1.5254    9.2211 H         1 <0>         0.0605
     42 H15         2.0207    3.0534    8.3092 H         1 <0>         0.0610
     43 H16        -0.5010    1.5689    9.1776 H         1 <0>         0.0609
     44 H17         0.1505    3.0408    9.9373 H         1 <0>         0.0585
     45 H18        -1.6625    3.5925    8.3382 H         1 <0>         0.0608
     46 H19        -0.1052    4.2605    7.7936 H         1 <0>         0.0611
     47 H20        -1.3126    3.1756    5.9191 H         1 <0>         0.0640
     48 H21        -1.3554    1.6476    6.8310 H         1 <0>         0.0643
@<TRIPOS>BOND
     1    1    2 1
     2    1   28 1
     3    1   29 1
     4    1   30 1
     5    2   11 ar
     6    2    3 ar
     7    3    4 ar
     8    3   25 1
     9    4    9 ar
    10    4    5 ar
    11    5    6 ar
    12    5   31 1
    13    6    7 ar
    14    6   24 1
    15    7    8 ar
    16    7   32 1
    17    8    9 ar
    18    8   33 1
    19    9   10 ar
    20   10   11 ar
    21   11   12 1
    22   12   17 ar
    23   12   13 ar
    24   13   14 ar
    25   13   34 1
    26   14   15 ar
    27   14   35 1
    28   15   16 ar
    29   15   18 1
    30   16   17 ar
    31   16   36 1
    32   17   37 1
    33   18   23 1
    34   18   19 1
    35   18   38 1
    36   19   20 1
    37   19   39 1
    38   19   40 1
    39   20   21 1
    40   20   41 1
    41   20   42 1
    42   21   22 1
    43   21   43 1
    44   21   44 1
    45   22   23 1
    46   22   45 1
    47   22   46 1
    48   23   47 1
    49   23   48 1
    50   25   26 2
    51   25   27 1
@<TRIPOS>MOLECULE
CHEMBL143552
   53    56     0     0     0
SMALL
USER_CHARGES

@<TRIPOS>ATOM
      1 C1          0.1399   -3.5204    4.5722 C.3       1 <0>         0.0233
      2 O1          0.0427   -3.2426    3.1738 O.3       1 <0>        -0.3106
      3 C2         -1.1927   -3.3237    2.6130 C.ar      1 <0>         0.1534
      4 C3         -2.2889   -3.6584    3.3955 C.ar      1 <0>        -0.2059
      5 C4         -3.5439   -3.7405    2.8269 C.ar      1 <0>        -0.0454
      6 C5         -3.7095   -3.4881    1.4709 C.ar      1 <0>         0.0614
      7 C6         -2.6117   -3.1532    0.6883 C.ar      1 <0>        -0.0143
      8 C7         -1.3582   -3.0663    1.2594 C.ar      1 <0>        -0.1420
      9 N1         -4.9821   -3.5717    0.8933 N.pl3     1 <0>        -0.1826
     10 C8         -5.2723   -4.2107   -0.2833 C.2       1 <0>        -0.0390
     11 C9         -6.6193   -4.0602   -0.4909 C.2       1 <0>        -0.1165
     12 C10        -7.0880   -3.3132    0.6078 C.2       1 <0>        -0.0203
     13 N2         -6.0531   -3.0654    1.3900 N.2       1 <0>        -0.2243
     14 C11        -8.4829   -2.8893    0.8445 C.2       1 <0>         0.6092
     15 O2         -9.3518   -3.1857    0.0475 O.2       1 <0>        -0.5236
     16 N3         -8.7926   -2.1741    1.9440 N.am      1 <0>        -0.7144
     17 C12       -10.1762   -1.7537    2.1788 C.3       1 <0>         0.1666
     18 C13       -10.2528   -0.9743    3.4663 C.ar      1 <0>        -0.1655
     19 C14       -10.4886   -1.6249    4.6679 C.ar      1 <0>        -0.0545
     20 C15       -10.5510   -0.8674    5.8273 C.ar      1 <0>        -0.1738
     21 C16       -10.3773    0.5016    5.7475 C.ar      1 <0>         0.1080
     22 N4        -10.1551    1.0867    4.5870 N.ar      1 <0>        -0.4846
     23 C17       -10.0832    0.3971    3.4651 C.ar      1 <0>         0.1207
     24 C18        -4.3234   -4.9204   -1.1545 C.2       1 <0>         0.5910
     25 O3         -3.1507   -4.9981   -0.8407 O.2       1 <0>        -0.5029
     26 N5         -4.7531   -5.4847   -2.3005 N.am      1 <0>        -0.6564
     27 C19        -3.8750   -6.2478   -3.0764 C.ar      1 <0>         0.1392
     28 C20        -2.5411   -5.8763   -3.1864 C.ar      1 <0>        -0.1155
     29 C21        -1.6765   -6.6321   -3.9535 C.ar      1 <0>        -0.1026
     30 C22        -2.1373   -7.7577   -4.6115 C.ar      1 <0>        -0.1289
     31 C23        -3.4648   -8.1301   -4.5044 C.ar      1 <0>        -0.1020
     32 C24        -4.3333   -7.3821   -3.7340 C.ar      1 <0>        -0.1385
     33 H1          1.1774   -3.4204    4.8912 H         1 <0>         0.1048
     34 H2         -0.4802   -2.8160    5.1265 H         1 <0>         0.0592
     35 H3         -0.2033   -4.5368    4.7654 H         1 <0>         0.0590
     36 H4         -2.1599   -3.8549    4.4496 H         1 <0>         0.1407
     37 H5         -4.3968   -4.0013    3.4359 H         1 <0>         0.1357
     38 H6         -2.7397   -2.9572   -0.3661 H         1 <0>         0.1388
     39 H7         -0.5053   -2.8016    0.6520 H         1 <0>         0.1441
     40 H8         -7.1987   -4.4350   -1.3217 H         1 <0>         0.1769
     41 H9         -8.0993   -1.9377    2.5799 H         1 <0>         0.4090
     42 H10       -10.5100   -1.1252    1.3532 H         1 <0>         0.0858
     43 H11       -10.8164   -2.6332    2.2478 H         1 <0>         0.0840
     44 H12       -10.6209   -2.6963    4.6998 H         1 <0>         0.1373
     45 H13       -10.7334   -1.3408    6.7807 H         1 <0>         0.1388
     46 H14       -10.4244    1.0989    6.6461 H         1 <0>         0.1587
     47 H15        -9.8944    0.9107    2.5340 H         1 <0>         0.1577
     48 H16        -5.6716   -5.3615   -2.5872 H         1 <0>         0.4153
     49 H17        -2.1807   -4.9972   -2.6730 H         1 <0>         0.1376
     50 H18        -0.6393   -6.3436   -4.0398 H         1 <0>         0.1271
     51 H19        -1.4591   -8.3470   -5.2108 H         1 <0>         0.1248
     52 H20        -3.8217   -9.0093   -5.0202 H         1 <0>         0.1281
     53 H21        -5.3688   -7.6763   -3.6466 H         1 <0>         0.1275
@<TRIPOS>BOND
     1    1    2 1
     2    1   33 1
     3    1   34 1
     4    1   35 1
     5    2    3 1
     6    3    8 ar
     7    3    4 ar
     8    4    5 ar
     9    4   36 1
    10    5    6 ar
    11    5   37 1
    12    6    7 ar
    13    6    9 1
    14    7    8 ar
    15    7   38 1
    16    8   39 1
    17    9   13 1
    18    9   10 1
    19   10   11 2
    20   10   24 1
    21   11   12 1
    22   11   40 1
    23   12   13 2
    24   12   14 1
    25   14   15 2
    26   14   16 am
    27   16   17 1
    28   16   41 1
    29   17   18 1
    30   17   42 1
    31   17   43 1
    32   18   23 ar
    33   18   19 ar
    34   19   20 ar
    35   19   44 1
    36   20   21 ar
    37   20   45 1
    38   21   22 ar
    39   21   46 1
    40   22   23 ar
    41   23   47 1
    42   24   25 2
    43   24   26 am
    44   26   27 1
    45   26   48 1
    46   27   32 ar
    47   27   28 ar
    48   28   29 ar
    49   28   49 1
    50   29   30 ar
    51   29   50 1
    52   30   31 ar
    53   30   51 1
    54   31   32 ar
    55   31   52 1
    56   32   53 1
@<TRIPOS>MOLECULE
CHEMBL143868
   53    56     0     0     0
SMALL
USER_CHARGES

@<TRIPOS>ATOM
      1 C1         -2.7827   -0.2787    0.7798 C.3       1 <0>        -0.1193
      2 C2         -2.2659   -1.6856    0.6223 C.ar      1 <0>        -0.0747
      3 C3         -1.9073   -2.1543   -0.6277 C.ar      1 <0>        -0.1230
      4 C4         -1.4333   -3.4448   -0.7721 C.ar      1 <0>        -0.0940
      5 C5         -1.3174   -4.2663    0.3335 C.ar      1 <0>        -0.1196
      6 C6         -1.6751   -3.7973    1.5837 C.ar      1 <0>        -0.0941
      7 C7         -2.1451   -2.5054    1.7288 C.ar      1 <0>        -0.1230
      8 C8         -0.8015   -5.6735    0.1759 C.3       1 <0>         0.1625
      9 N1          0.6559   -5.6788    0.3244 N.am      1 <0>        -0.7114
     10 C9          1.3396   -6.8357    0.2214 C.2       1 <0>         0.6066
     11 O1          0.7468   -7.8749    0.0053 O.2       1 <0>        -0.5241
     12 C10         2.8091   -6.8411    0.3712 C.2       1 <0>        -0.0134
     13 C11         3.6514   -7.9672    0.2832 C.2       1 <0>        -0.1142
     14 C12         4.9210   -7.4913    0.4865 C.2       1 <0>        -0.0364
     15 N2          4.8075   -6.1402    0.6836 N.pl3     1 <0>        -0.1954
     16 N3          3.5738   -5.7906    0.6062 N.2       1 <0>        -0.2215
     17 C13         5.8765   -5.2701    0.9272 C.ar      1 <0>         0.1139
     18 C14         7.0154   -5.3281    0.1342 C.ar      1 <0>        -0.0491
     19 C15         8.0684   -4.4682    0.3764 C.ar      1 <0>        -0.0977
     20 C16         7.9896   -3.5491    1.4082 C.ar      1 <0>        -0.0160
     21 C17         6.8559   -3.4892    2.1999 C.ar      1 <0>        -0.1032
     22 C18         5.7980   -4.3432    1.9587 C.ar      1 <0>        -0.0766
     23 Cl1         9.3154   -2.4699    1.7103 Cl        1 <0>        -0.0542
     24 C19         6.1636   -8.2784    0.4922 C.2       1 <0>         0.5907
     25 O2          7.2148   -7.7532    0.8066 O.2       1 <0>        -0.5028
     26 N4          6.1374   -9.5815    0.1492 N.am      1 <0>        -0.6544
     27 C20         7.2893  -10.3629    0.2828 C.ar      1 <0>         0.1389
     28 C21         8.5416   -9.7968    0.0816 C.ar      1 <0>        -0.1203
     29 C22         9.6773  -10.5712    0.2148 C.ar      1 <0>        -0.1021
     30 C23         9.5687  -11.9089    0.5482 C.ar      1 <0>        -0.1299
     31 C24         8.3235  -12.4756    0.7493 C.ar      1 <0>        -0.1009
     32 C25         7.1840  -11.7055    0.6228 C.ar      1 <0>        -0.1401
     33 H1         -1.9471    0.3970    0.9623 H         1 <0>         0.0729
     34 H2         -3.3010    0.0220   -0.1307 H         1 <0>         0.0682
     35 H3         -3.4738   -0.2376    1.6217 H         1 <0>         0.0681
     36 H4         -1.9979   -1.5124   -1.4915 H         1 <0>         0.1246
     37 H5         -1.1538   -3.8112   -1.7489 H         1 <0>         0.1247
     38 H6         -1.5848   -4.4393    2.4475 H         1 <0>         0.1246
     39 H7         -2.4211   -2.1377    2.7060 H         1 <0>         0.1245
     40 H8         -1.2469   -6.3114    0.9393 H         1 <0>         0.0811
     41 H9         -1.0674   -6.0494   -0.8121 H         1 <0>         0.0811
     42 H10         1.1289   -4.8497    0.4969 H         1 <0>         0.4093
     43 H11         3.3586   -8.9898    0.0959 H         1 <0>         0.1785
     44 H12         7.0775   -6.0453   -0.6709 H         1 <0>         0.1381
     45 H13         8.9543   -4.5131   -0.2397 H         1 <0>         0.1467
     46 H14         6.7971   -2.7711    3.0044 H         1 <0>         0.1473
     47 H15         4.9119   -4.2932    2.5742 H         1 <0>         0.1433
     48 H16         5.3196   -9.9773   -0.1904 H         1 <0>         0.4159
     49 H17         8.6271   -8.7522   -0.1792 H         1 <0>         0.1422
     50 H18        10.6513  -10.1317    0.0581 H         1 <0>         0.1270
     51 H19        10.4584  -12.5124    0.6514 H         1 <0>         0.1248
     52 H20         8.2421  -13.5207    1.0092 H         1 <0>         0.1283
     53 H21         6.2120  -12.1476    0.7843 H         1 <0>         0.1278
@<TRIPOS>BOND
     1    1    2 1
     2    1   33 1
     3    1   34 1
     4    1   35 1
     5    2    7 ar
     6    2    3 ar
     7    3    4 ar
     8    3   36 1
     9    4    5 ar
    10    4   37 1
    11    5    6 ar
    12    5    8 1
    13    6    7 ar
    14    6   38 1
    15    7   39 1
    16    8    9 1
    17    8   40 1
    18    8   41 1
    19    9   10 am
    20    9   42 1
    21   10   11 2
    22   10   12 1
    23   12   16 2
    24   12   13 1
    25   13   14 2
    26   13   43 1
    27   14   15 1
    28   14   24 1
    29   15   16 1
    30   15   17 1
    31   17   22 ar
    32   17   18 ar
    33   18   19 ar
    34   18   44 1
    35   19   20 ar
    36   19   45 1
    37   20   21 ar
    38   20   23 1
    39   21   22 ar
    40   21   46 1
    41   22   47 1
    42   24   25 2
    43   24   26 am
    44   26   27 1
    45   26   48 1
    46   27   32 ar
    47   27   28 ar
    48   28   29 ar
    49   28   49 1
    50   29   30 ar
    51   29   50 1
    52   30   31 ar
    53   30   51 1
    54   31   32 ar
    55   31   52 1
    56   32   53 1
