@<TRIPOS>MOLECULE
ZINC00227558
   39    40     0     0     0
SMALL
USER_CHARGES
isopropyl 4-(2-fluorophenyl)-2-methyl-6-oxo-4,5-dihydro-1H-pyridine-3-carboxylate
@<TRIPOS>ATOM
      1 C1          3.0616    3.4199   -0.4946 C.3       1 <0>        -0.1220
      2 C2          1.6633    2.8589   -0.5275 C.2       1 <0>         0.2426
      3 C3          1.4309    1.6372   -0.0186 C.2       1 <0>        -0.2553
      4 C4          0.0358    1.0682    0.0005 C.3       1 <0>         0.0088
      5 H1          0.0872   -0.0205   -0.0146 H         1 <0>         0.1165
      6 C5         -0.7325    1.5595   -1.2282 C.3       1 <0>        -0.1353
      7 C6         -0.5315    3.0459   -1.3811 C.2       1 <0>         0.5229
      8 O1         -1.4410    3.7406   -1.7816 O.2       1 <0>        -0.4981
      9 N1          0.6532    3.6038   -1.0751 N.am      1 <0>        -0.6567
     10 C7         -0.6741    1.5203    1.2506 C.ar      1 <0>        -0.1139
     11 C8         -0.8553    2.8688    1.4934 C.ar      1 <0>        -0.0940
     12 C9         -1.5114    3.2836    2.6372 C.ar      1 <0>        -0.1257
     13 C10        -1.9770    2.3506    3.5452 C.ar      1 <0>        -0.0890
     14 C11        -1.7920    1.0021    3.3074 C.ar      1 <0>        -0.1520
     15 C12        -1.1398    0.5852    2.1591 C.ar      1 <0>         0.1153
     16 F1         -0.9587   -0.7330    1.9253 F         1 <0>        -0.1306
     17 C13         2.5053    0.8789    0.5043 C.2       1 <0>         0.5218
     18 O2          3.6466    1.2871    0.3979 O.2       1 <0>        -0.5183
     19 O3          2.2641   -0.2969    1.1208 O.3       1 <0>        -0.3406
     20 C14         3.3957   -1.0095    1.6245 C.3       1 <0>         0.0821
     21 C15         3.6711   -0.5760    3.0657 C.3       1 <0>        -0.1705
     22 C16         3.1090   -2.5120    1.5898 C.3       1 <0>        -0.1502
     23 H2          3.7119    2.8118   -1.1234 H         1 <0>         0.1074
     24 H3          3.0509    4.4444   -0.8666 H         1 <0>         0.0667
     25 H4          3.4333    3.4093    0.5300 H         1 <0>         0.1023
     26 H5         -0.3621    1.0488   -2.1171 H         1 <0>         0.1162
     27 H6         -1.7942    1.3473   -1.1022 H         1 <0>         0.1170
     28 H7          0.7943    4.5484   -1.2445 H         1 <0>         0.4183
     29 H8         -0.4881    3.5986    0.7871 H         1 <0>         0.1234
     30 H9         -1.6562    4.3374    2.8241 H         1 <0>         0.1293
     31 H10        -2.4853    2.6760    4.4409 H         1 <0>         0.1340
     32 H11        -2.1554    0.2736    4.0169 H         1 <0>         0.1375
     33 H12         4.2668   -0.7914    1.0067 H         1 <0>         0.0834
     34 H13         3.8753    0.4944    3.0905 H         1 <0>         0.0598
     35 H14         2.8000   -0.7940    3.6835 H         1 <0>         0.0646
     36 H15         4.5343   -1.1195    3.4500 H         1 <0>         0.0733
     37 H16         2.9128   -2.8208    0.5630 H         1 <0>         0.0640
     38 H17         3.9722   -3.0555    1.9740 H         1 <0>         0.0771
     39 H18         2.2379   -2.7300    2.2076 H         1 <0>         0.0679
@<TRIPOS>BOND
     1    1    2 1
     2    1   23 1
     3    1   24 1
     4    1   25 1
     5    2    9 1
     6    2    3 2
     7    3    4 1
     8    3   17 1
     9    4    5 1
    10    4    6 1
    11    4   10 1
    12    6    7 1
    13    6   26 1
    14    6   27 1
    15    7    8 2
    16    7    9 am
    17    9   28 1
    18   10   15 ar
    19   10   11 ar
    20   11   12 ar
    21   11   29 1
    22   12   13 ar
    23   12   30 1
    24   13   14 ar
    25   13   31 1
    26   14   15 ar
    27   14   32 1
    28   15   16 1
    29   17   18 2
    30   17   19 1
    31   19   20 1
    32   20   21 1
    33   20   22 1
    34   20   33 1
    35   21   34 1
    36   21   35 1
    37   21   36 1
    38   22   37 1
    39   22   38 1
    40   22   39 1
@<TRIPOS>MOLECULE
ZINC20900794
   40    41     0     0     0
SMALL
USER_CHARGES
4-methyl-1,1-dioxo-5-(p-tolyl)-N-sec-butyl-isothiazol-3-amine
@<TRIPOS>ATOM
      1 C1         -0.7725    1.4597    3.7620 C.3       1 <0>        -0.1585
      2 C2          0.0111    1.0724    2.5063 C.3       1 <0>        -0.1331
      3 C3         -0.7288    1.5792    1.2668 C.3       1 <0>         0.1392
      4 H1         -1.7753    1.2406    1.2750 H         1 <0>         0.1055
      5 C4         -0.0127    1.0858    0.0080 C.3       1 <0>        -0.1682
      6 N1         -0.7487    3.0441    1.2749 N.pl3     1 <0>        -0.6666
      7 C5         -1.7440    3.7247    0.6021 C.2       1 <0>         0.4868
      8 N2         -2.6694    3.0778   -0.0489 N.2       1 <0>        -0.8797
      9 S1         -3.6494    4.2697   -0.6969 S.o2      1 <0>         2.5445
     10 O1         -4.9101    4.2021   -0.0446 O.2       1 <0>        -0.9379
     11 O2         -3.4947    4.2331   -2.1090 O.2       1 <0>        -0.9372
     12 C6         -2.8036    5.7169   -0.0952 C.2       1 <0>        -0.5260
     13 C7         -1.7782    5.1740    0.6001 C.2       1 <0>        -0.1085
     14 C8         -0.7509    6.0111    1.3178 C.3       1 <0>        -0.1609
     15 C9         -3.1346    7.1374   -0.3018 C.ar      1 <0>        -0.0168
     16 C10        -2.3367    8.1344    0.2668 C.ar      1 <0>        -0.1228
     17 C11        -2.6502    9.4621    0.0650 C.ar      1 <0>        -0.1207
     18 C12        -3.7576    9.8083   -0.6894 C.ar      1 <0>        -0.0647
     19 C13        -4.5552    8.8268   -1.2511 C.ar      1 <0>        -0.1133
     20 C14        -4.2514    7.4949   -1.0625 C.ar      1 <0>        -0.0923
     21 C15        -4.0968   11.2615   -0.8999 C.3       1 <0>        -0.1232
     22 H2         -0.2405    1.0953    4.6531 H         1 <0>         0.0606
     23 H3         -1.7746    1.0077    3.7228 H         1 <0>         0.0597
     24 H4         -0.8658    2.5546    3.8128 H         1 <0>         0.0538
     25 H5          1.0132    1.5244    2.5455 H         1 <0>         0.0717
     26 H6          0.1045   -0.0225    2.4555 H         1 <0>         0.0872
     27 H7         -0.5447    1.4502   -0.8831 H         1 <0>         0.0687
     28 H8          0.0022   -0.0141    0.0020 H         1 <0>         0.0738
     29 H9          1.0193    1.4665    0.0002 H         1 <0>         0.0593
     30 H10         0.0293    3.6017    1.8170 H         1 <0>         0.4363
     31 H11        -0.9819    7.0771    1.1750 H         1 <0>         0.1262
     32 H12         0.2478    5.7946    0.9107 H         1 <0>         0.0916
     33 H13        -0.7688    5.7726    2.3915 H         1 <0>         0.0916
     34 H14        -1.4746    7.8656    0.8592 H         1 <0>         0.1646
     35 H15        -2.0322   10.2336    0.5000 H         1 <0>         0.1312
     36 H16        -5.4180    9.1046   -1.8384 H         1 <0>         0.1342
     37 H17        -4.8750    6.7300   -1.5012 H         1 <0>         0.1234
     38 H18        -5.0021   11.3406   -1.5197 H         1 <0>         0.0700
     39 H19        -3.2599   11.7636   -1.4074 H         1 <0>         0.0753
     40 H20        -4.2760   11.7409    0.0738 H         1 <0>         0.0753
@<TRIPOS>BOND
     1    1    2 1
     2    1   22 1
     3    1   23 1
     4    1   24 1
     5    2    3 1
     6    2   25 1
     7    2   26 1
     8    3    4 1
     9    3    5 1
    10    3    6 1
    11    5   27 1
    12    5   28 1
    13    5   29 1
    14    6    7 1
    15    6   30 1
    16    7   13 1
    17    7    8 2
    18    8    9 1
    19    9   10 2
    20    9   11 2
    21    9   12 1
    22   12   13 2
    23   12   15 1
    24   13   14 1
    25   14   31 1
    26   14   32 1
    27   14   33 1
    28   15   20 ar
    29   15   16 ar
    30   16   17 ar
    31   16   34 1
    32   17   18 ar
    33   17   35 1
    34   18   19 ar
    35   18   21 1
    36   19   20 ar
    37   19   36 1
    38   20   37 1
    39   21   38 1
    40   21   39 1
    41   21   40 1
@<TRIPOS>MOLECULE
ZINC37216150
   37    39     0     0     0
SMALL
USER_CHARGES

@<TRIPOS>ATOM
      1 C1         -0.0184    1.5028    0.0103 C.3       1 <0>        -0.1096
      2 C2          0.0021   -0.0041    0.0020 C.2       1 <0>         0.0637
      3 C3          0.0055   -0.6557   -1.1599 C.2       1 <0>        -0.1843
      4 S1          0.0318   -2.3601   -0.6267 S.3       1 <0>         0.1325
      5 C4          0.0362   -2.0590    1.1250 C.2       1 <0>         0.1863
      6 N1          0.0227   -0.6910    1.1963 N.pl3     1 <0>        -0.4229
      7 C5          0.0314   -0.4059    2.5591 C.2       1 <0>        -0.0418
      8 C6          0.0539   -1.5745    3.2211 C.2       1 <0>         0.0705
      9 N2          0.0488   -2.5707    2.3220 N.2       1 <0>        -0.4418
     10 C7          0.0705   -1.7389    4.7190 C.3       1 <0>        -0.0725
     11 C8          0.0188    0.9672    3.1800 C.3       1 <0>         0.2050
     12 N3         -1.3663    1.3938    3.3938 N.pl3     1 <0>        -0.7479
     13 C9         -1.6335    2.6439    3.9630 C.ar      1 <0>         0.1819
     14 C10        -0.5862    3.4829    4.3200 C.ar      1 <0>        -0.1579
     15 C11        -0.8508    4.7167    4.8812 C.ar      1 <0>        -0.1017
     16 C12        -2.1623    5.1180    5.0883 C.ar      1 <0>         0.0718
     17 C13        -3.2090    4.2804    4.7325 C.ar      1 <0>        -0.1574
     18 C14        -2.9463    3.0486    4.1659 C.ar      1 <0>        -0.1527
     19 O1         -2.4219    6.3332    5.6411 O.3       1 <0>        -0.3214
     20 C15        -3.7954    6.6817    5.8257 C.3       1 <0>         0.0288
     21 H1          1.0042    1.8801    0.0026 H         1 <0>         0.0842
     22 H2         -0.5455    1.8639   -0.8728 H         1 <0>         0.0907
     23 H3         -0.5286    1.8543    0.9071 H         1 <0>         0.0802
     24 H4         -0.0053   -0.2569   -2.1635 H         1 <0>         0.2168
     25 H5         -0.9530   -1.7927    5.0900 H         1 <0>         0.0782
     26 H6          0.5995   -2.6560    4.9780 H         1 <0>         0.0799
     27 H7          0.5770   -0.8869    5.1724 H         1 <0>         0.0768
     28 H8          0.5418    0.9386    4.1359 H         1 <0>         0.0861
     29 H9          0.5172    1.6717    2.5141 H         1 <0>         0.0686
     30 H10        -2.0982    0.8096    3.1409 H         1 <0>         0.3999
     31 H11         0.4351    3.1705    4.1591 H         1 <0>         0.1264
     32 H12        -0.0363    5.3692    5.1592 H         1 <0>         0.1304
     33 H13        -4.2299    4.5935    4.8945 H         1 <0>         0.1274
     34 H14        -3.7615    2.3986    3.8845 H         1 <0>         0.1218
     35 H15        -4.3025    6.6845    4.8608 H         1 <0>         0.0526
     36 H16        -4.2699    5.9534    6.4834 H         1 <0>         0.0531
     37 H17        -3.8616    7.6732    6.2737 H         1 <0>         0.0983
@<TRIPOS>BOND
     1    1    2 1
     2    1   21 1
     3    1   22 1
     4    1   23 1
     5    2    6 1
     6    2    3 2
     7    3    4 1
     8    3   24 1
     9    4    5 1
    10    5    9 2
    11    5    6 1
    12    6    7 1
    13    7    8 2
    14    7   11 1
    15    8    9 1
    16    8   10 1
    17   10   25 1
    18   10   26 1
    19   10   27 1
    20   11   12 1
    21   11   28 1
    22   11   29 1
    23   12   13 1
    24   12   30 1
    25   13   18 ar
    26   13   14 ar
    27   14   15 ar
    28   14   31 1
    29   15   16 ar
    30   15   32 1
    31   16   17 ar
    32   16   19 1
    33   17   18 ar
    34   17   33 1
    35   18   34 1
    36   19   20 1
    37   20   35 1
    38   20   36 1
    39   20   37 1
@<TRIPOS>MOLECULE
ZINC44499109
   36    38     0     0     0
SMALL
USER_CHARGES

@<TRIPOS>ATOM
      1 C1         -0.0187    1.5258    0.0104 C.3       1 <0>        -0.1637
      2 C2          0.0021   -0.0041    0.0020 C.3       1 <0>         0.2279
      3 H1          0.5293   -0.3651    0.8851 H         1 <0>         0.0857
      4 C3         -1.4117   -0.5257    0.0127 C.2       1 <0>        -0.2505
      5 C4         -2.2603   -0.6259   -1.0947 C.2       1 <0>         0.0563
      6 N1         -3.4015   -1.1229   -0.6914 N.2       1 <0>        -0.2914
      7 N2         -3.3150   -1.3549    0.6874 N.pl3     1 <0>        -0.3722
      8 C5         -2.0826   -0.9853    1.0943 C.2       1 <0>         0.0708
      9 C6         -4.3736   -1.9068    1.5365 C.3       1 <0>         0.0986
     10 N3          0.6878   -0.4765   -1.2033 N.pl3     1 <0>        -0.7304
     11 C7          2.0780   -0.5908   -1.2153 C.ar      1 <0>         0.2459
     12 C8          2.8112   -0.2614   -0.0805 C.ar      1 <0>        -0.2039
     13 C9          4.1845   -0.3728   -0.0895 C.ar      1 <0>        -0.0145
     14 C10         4.8399   -0.8175   -1.2394 C.ar      1 <0>        -0.0891
     15 C11         4.1009   -1.1480   -2.3771 C.ar      1 <0>        -0.0358
     16 C12         2.7275   -1.0395   -2.3603 C.ar      1 <0>        -0.1969
     17 C13         6.3128   -0.9377   -1.2525 C.2       1 <0>         0.1812
     18 N4          7.1866   -0.6829   -0.2882 N.2       1 <0>        -0.5141
     19 C14         8.4756   -0.8477   -0.4760 C.2       1 <0>         0.0335
     20 C15         8.9343   -1.2872   -1.6771 C.2       1 <0>        -0.2122
     21 S1          7.3961   -1.4734   -2.5702 S.3       1 <0>        -0.0123
     22 H2          1.0039    1.9031    0.0027 H         1 <0>         0.0628
     23 H3         -0.5459    1.8868   -0.8726 H         1 <0>         0.0599
     24 H4         -0.5289    1.8773    0.9072 H         1 <0>         0.0647
     25 H5         -2.0157   -0.3422   -2.1076 H         1 <0>         0.1805
     26 H6         -1.7010   -1.0434    2.1029 H         1 <0>         0.1765
     27 H7         -4.2867   -2.9929    1.5658 H         1 <0>         0.0774
     28 H8         -4.2752   -1.5071    2.5458 H         1 <0>         0.0898
     29 H9         -5.3465   -1.6310    1.1297 H         1 <0>         0.0912
     30 H10         0.1751   -0.7099   -1.9930 H         1 <0>         0.4010
     31 H11         2.3037    0.0826    0.8086 H         1 <0>         0.1305
     32 H12         4.7534   -0.1161    0.7919 H         1 <0>         0.1343
     33 H13         4.6051   -1.4923   -3.2680 H         1 <0>         0.1256
     34 H14         2.1551   -1.2988   -3.2386 H         1 <0>         0.1288
     35 H15         9.1702   -0.6338    0.3229 H         1 <0>         0.1670
     36 H16         9.9471   -1.4758   -2.0014 H         1 <0>         0.1972
@<TRIPOS>BOND
     1    1    2 1
     2    1   22 1
     3    1   23 1
     4    1   24 1
     5    2    3 1
     6    2    4 1
     7    2   10 1
     8    4    8 2
     9    4    5 1
    10    5    6 2
    11    5   25 1
    12    6    7 1
    13    7    8 1
    14    7    9 1
    15    8   26 1
    16    9   27 1
    17    9   28 1
    18    9   29 1
    19   10   11 1
    20   10   30 1
    21   11   16 ar
    22   11   12 ar
    23   12   13 ar
    24   12   31 1
    25   13   14 ar
    26   13   32 1
    27   14   15 ar
    28   14   17 1
    29   15   16 ar
    30   15   33 1
    31   16   34 1
    32   17   21 1
    33   17   18 2
    34   18   19 1
    35   19   20 2
    36   19   35 1
    37   20   21 1
    38   20   36 1
@<TRIPOS>MOLECULE
ZINC36851505
   33    34     0     0     0
SMALL
USER_CHARGES

@<TRIPOS>ATOM
      1 C1         -0.0187    1.5258    0.0104 C.3       1 <0>        -0.1492
      2 C2          0.0021   -0.0041    0.0020 C.3       1 <0>        -0.1387
      3 C3         -1.4333   -0.5336    0.0129 C.3       1 <0>         0.0959
      4 N1         -1.4134   -1.9985    0.0048 N.am      1 <0>        -0.5719
      5 C4         -1.4087   -2.7168   -1.1249 C.2       1 <0>         0.5279
      6 O1         -1.4195   -2.2597   -2.2477 O.2       1 <0>        -0.4705
      7 C5         -1.3871   -4.1895   -0.7784 C.3       1 <0>        -0.1643
      8 C6         -1.3802   -4.1979    0.7639 C.3       1 <0>         0.1214
      9 H1         -2.2683   -4.6992    1.1487 H         1 <0>         0.1380
     10 C7         -1.3929   -2.7289    1.1266 C.2       1 <0>         0.5071
     11 O2         -1.3879   -2.2840    2.2542 O.2       1 <0>        -0.4575
     12 N2         -0.1660   -4.8423    1.2705 N.pl3     1 <0>        -0.7220
     13 C8         -0.1627   -5.4272    2.5413 C.ar      1 <0>         0.2129
     14 C9         -1.3114   -5.4028    3.3210 C.ar      1 <0>        -0.1432
     15 C10        -1.3061   -5.9809    4.5755 C.ar      1 <0>        -0.0971
     16 C11        -0.1563   -6.5844    5.0565 C.ar      1 <0>         0.0620
     17 C12         0.9906   -6.6104    4.2815 C.ar      1 <0>        -0.0990
     18 C13         0.9884   -6.0387    3.0230 C.ar      1 <0>        -0.0789
     19 Cl1         2.4244   -6.0777    2.0483 Cl        1 <0>        -0.0562
     20 F1         -0.1536   -7.1483    6.2842 F         1 <0>        -0.1355
     21 H2          1.0039    1.9031    0.0027 H         1 <0>         0.0624
     22 H3         -0.5459    1.8868   -0.8726 H         1 <0>         0.0595
     23 H4         -0.5289    1.8773    0.9072 H         1 <0>         0.0592
     24 H5          0.5123   -0.3556   -0.8948 H         1 <0>         0.0679
     25 H6          0.5293   -0.3651    0.8851 H         1 <0>         0.0675
     26 H7         -1.9435   -0.1821    0.9097 H         1 <0>         0.0957
     27 H8         -1.9605   -0.1726   -0.8702 H         1 <0>         0.0962
     28 H9         -2.2786   -4.6867   -1.1607 H         1 <0>         0.1370
     29 H10        -0.4859   -4.6623   -1.1686 H         1 <0>         0.1292
     30 H11         0.6357   -4.8633    0.7249 H         1 <0>         0.4110
     31 H12        -2.2083   -4.9317    2.9470 H         1 <0>         0.1409
     32 H13        -2.1995   -5.9619    5.1820 H         1 <0>         0.1444
     33 H14         1.8862   -7.0817    4.6586 H         1 <0>         0.1479
@<TRIPOS>BOND
     1    1    2 1
     2    1   21 1
     3    1   22 1
     4    1   23 1
     5    2    3 1
     6    2   24 1
     7    2   25 1
     8    3    4 1
     9    3   26 1
    10    3   27 1
    11    4   10 am
    12    4    5 am
    13    5    6 2
    14    5    7 1
    15    7    8 1
    16    7   28 1
    17    7   29 1
    18    8    9 1
    19    8   10 1
    20    8   12 1
    21   10   11 2
    22   12   13 1
    23   12   30 1
    24   13   18 ar
    25   13   14 ar
    26   14   15 ar
    27   14   31 1
    28   15   16 ar
    29   15   32 1
    30   16   17 ar
    31   16   20 1
    32   17   18 ar
    33   17   33 1
    34   18   19 1
@<TRIPOS>MOLECULE
ZINC02715005
   43    46     0     0     0
SMALL
USER_CHARGES
N-allyl-7-(4-chlorophenyl)-9-phenyl-3,5,7-triazabicyclo[4.3.0]nona-2,4,8,10-tetraen-2-amine
@<TRIPOS>ATOM
      1 C1         -0.9689    4.5012   -3.6841 C.2       1 <0>        -0.1598
      2 C2          0.0815    3.7186   -3.7041 C.2       1 <0>        -0.1826
      3 C3          1.4548    4.2947   -3.4734 C.3       1 <0>         0.1529
      4 N1          2.1047    3.5816   -2.3710 N.pl3     1 <0>        -0.7022
      5 C4          3.3817    3.9369   -1.9747 C.ar      1 <0>         0.4916
      6 C5          4.0197    3.2665   -0.9223 C.ar      1 <0>        -0.2487
      7 C6          3.6592    2.1630   -0.0226 C.2       1 <0>        -0.0906
      8 C7          4.7191    1.9747    0.8019 C.2       1 <0>         0.0579
      9 N2          5.7123    2.8624    0.4841 N.pl3     1 <0>        -0.4106
     10 C8          5.3173    3.6632   -0.5564 C.ar      1 <0>         0.3518
     11 N3          5.8899    4.6624   -1.2264 N.ar      1 <0>        -0.5658
     12 C9          5.2541    5.2645   -2.2079 C.ar      1 <0>         0.3649
     13 N4          4.0347    4.9230   -2.5834 N.ar      1 <0>        -0.5950
     14 C10         6.9514    2.9447    1.1331 C.ar      1 <0>         0.1283
     15 C11         8.1253    2.9581    0.3917 C.ar      1 <0>        -0.0866
     16 C12         9.3452    3.0437    1.0336 C.ar      1 <0>        -0.0921
     17 C13         9.3986    3.1059    2.4150 C.ar      1 <0>        -0.0321
     18 C14         8.2303    3.0879    3.1565 C.ar      1 <0>        -0.0941
     19 C15         7.0077    3.0073    2.5191 C.ar      1 <0>        -0.1059
     20 Cl1        10.9338    3.2073    3.2191 Cl        1 <0>        -0.0588
     21 C16         2.3840    1.4073   -0.0136 C.ar      1 <0>        -0.0131
     22 C17         1.1673    2.0880    0.0021 C.ar      1 <0>        -0.1249
     23 C18        -0.0167    1.3792    0.0096 C.ar      1 <0>        -0.1111
     24 C19         0.0021   -0.0041    0.0020 C.ar      1 <0>        -0.1191
     25 C20         1.2062   -0.6849   -0.0131 C.ar      1 <0>        -0.1114
     26 C21         2.3966    0.0132   -0.0212 C.ar      1 <0>        -0.1074
     27 H1         -1.9530    4.0883   -3.8494 H         1 <0>         0.1046
     28 H2         -0.8506    5.5592   -3.5024 H         1 <0>         0.1015
     29 H3         -0.0367    2.6606   -3.8858 H         1 <0>         0.1142
     30 H4          1.3679    5.3516   -3.2213 H         1 <0>         0.0747
     31 H5          2.0516    4.1851   -4.3789 H         1 <0>         0.0782
     32 H6          1.6396    2.8603   -1.9189 H         1 <0>         0.4137
     33 H7          4.7728    1.2357    1.5877 H         1 <0>         0.1828
     34 H8          5.7496    6.0708   -2.7283 H         1 <0>         0.2013
     35 H9          8.0843    2.9051   -0.6862 H         1 <0>         0.1395
     36 H10        10.2583    3.0583    0.4571 H         1 <0>         0.1440
     37 H11         8.2746    3.1366    4.2345 H         1 <0>         0.1440
     38 H12         6.0962    2.9925    3.0982 H         1 <0>         0.1398
     39 H13         1.1514    3.1679    0.0077 H         1 <0>         0.1236
     40 H14        -0.9598    1.9053    0.0169 H         1 <0>         0.1260
     41 H15        -0.9270   -0.5546    0.0083 H         1 <0>         0.1246
     42 H16         1.2147   -1.7648   -0.0190 H         1 <0>         0.1263
     43 H17         3.3361   -0.5194   -0.0330 H         1 <0>         0.1254
@<TRIPOS>BOND
     1    1    2 2
     2    1   27 1
     3    1   28 1
     4    2    3 1
     5    2   29 1
     6    3    4 1
     7    3   30 1
     8    3   31 1
     9    4    5 1
    10    4   32 1
    11    5   13 ar
    12    5    6 ar
    13    6   10 ar
    14    6    7 1
    15    7    8 2
    16    7   21 1
    17    8    9 1
    18    8   33 1
    19    9   10 1
    20    9   14 1
    21   10   11 ar
    22   11   12 ar
    23   12   13 ar
    24   12   34 1
    25   14   19 ar
    26   14   15 ar
    27   15   16 ar
    28   15   35 1
    29   16   17 ar
    30   16   36 1
    31   17   18 ar
    32   17   20 1
    33   18   19 ar
    34   18   37 1
    35   19   38 1
    36   21   26 ar
    37   21   22 ar
    38   22   23 ar
    39   22   39 1
    40   23   24 ar
    41   23   40 1
    42   24   25 ar
    43   24   41 1
    44   25   26 ar
    45   25   42 1
    46   26   43 1
@<TRIPOS>MOLECULE
ZINC02647909
   45    48     0     0     0
SMALL
USER_CHARGES
2-dibenzofuran-2-yloxy-N-(1-phenylethyl)acetamide
@<TRIPOS>ATOM
      1 C1          0.1484   -0.5200    1.4349 C.3       1 <0>        -0.1598
      2 C2          0.0021   -0.0041    0.0020 C.3       1 <0>         0.1863
      3 H1          0.8431   -0.3527   -0.5974 H         1 <0>         0.0994
      4 C3         -1.2844   -0.5207   -0.5890 C.ar      1 <0>        -0.0951
      5 C4         -2.4835    0.0922   -0.2769 C.ar      1 <0>        -0.1159
      6 C5         -3.6630   -0.3789   -0.8225 C.ar      1 <0>        -0.1152
      7 C6         -3.6445   -1.4689   -1.6725 C.ar      1 <0>        -0.1172
      8 C7         -2.4459   -2.0847   -1.9808 C.ar      1 <0>        -0.1141
      9 C8         -1.2659   -1.6109   -1.4387 C.ar      1 <0>        -0.1065
     10 N1         -0.0178    1.4608    0.0101 N.am      1 <0>        -0.7226
     11 C9          1.1401    2.1505    0.0027 C.2       1 <0>         0.5180
     12 O1          2.1985    1.5584   -0.0106 O.2       1 <0>        -0.5100
     13 C10         1.1197    3.6573    0.0110 C.3       1 <0>         0.0397
     14 O2          2.4603    4.1519    0.0009 O.3       1 <0>        -0.2850
     15 C11         2.6202    5.5023    0.0066 C.ar      1 <0>         0.1133
     16 C12         1.5062    6.3339    0.0159 C.ar      1 <0>        -0.1709
     17 C13         1.6551    7.7042    0.0267 C.ar      1 <0>        -0.0706
     18 C14         2.9250    8.2689    0.0176 C.ar      1 <0>         0.0492
     19 C15         4.0478    7.4303    0.0028 C.ar      1 <0>        -0.0790
     20 C16         3.8914    6.0482   -0.0026 C.ar      1 <0>        -0.0938
     21 C17         5.2179    8.3292   -0.0041 C.ar      1 <0>        -0.1269
     22 C18         6.5936    8.1252   -0.0188 C.ar      1 <0>        -0.0577
     23 C19         7.4460    9.2093   -0.0223 C.ar      1 <0>        -0.1393
     24 C20         6.9339   10.4971   -0.0112 C.ar      1 <0>        -0.0786
     25 C21         5.5718   10.7107    0.0034 C.ar      1 <0>        -0.1178
     26 C22         4.6971    9.6305    0.0071 C.ar      1 <0>         0.0891
     27 O3          3.3483    9.5530    0.0197 O.3       1 <0>        -0.1991
     28 H2          0.1632   -1.6099    1.4289 H         1 <0>         0.0708
     29 H3          1.0789   -0.1464    1.8624 H         1 <0>         0.0669
     30 H4         -0.6926   -0.1713    2.0343 H         1 <0>         0.0604
     31 H5         -2.4984    0.9412    0.3905 H         1 <0>         0.1203
     32 H6         -4.5994    0.1024   -0.5819 H         1 <0>         0.1248
     33 H7         -4.5664   -1.8391   -2.0961 H         1 <0>         0.1242
     34 H8         -2.4315   -2.9362   -2.6450 H         1 <0>         0.1258
     35 H9         -0.3295   -2.0922   -1.6793 H         1 <0>         0.1257
     36 H10        -0.8643    1.9343    0.0167 H         1 <0>         0.4013
     37 H11         0.5925    4.0184   -0.8721 H         1 <0>         0.0960
     38 H12         0.6095    4.0088    0.9078 H         1 <0>         0.0961
     39 H13         0.5160    5.9027    0.0185 H         1 <0>         0.1434
     40 H14         0.7826    8.3408    0.0381 H         1 <0>         0.1412
     41 H15         4.7583    5.4042   -0.0143 H         1 <0>         0.1410
     42 H16         6.9928    7.1217   -0.0270 H         1 <0>         0.1317
     43 H17         8.5148    9.0544   -0.0333 H         1 <0>         0.1348
     44 H18         7.6079   11.3410   -0.0137 H         1 <0>         0.1396
     45 H19         5.1840   11.7187    0.0122 H         1 <0>         0.1364
@<TRIPOS>BOND
     1    1    2 1
     2    1   28 1
     3    1   29 1
     4    1   30 1
     5    2    3 1
     6    2    4 1
     7    2   10 1
     8    4    9 ar
     9    4    5 ar
    10    5    6 ar
    11    5   31 1
    12    6    7 ar
    13    6   32 1
    14    7    8 ar
    15    7   33 1
    16    8    9 ar
    17    8   34 1
    18    9   35 1
    19   10   11 am
    20   10   36 1
    21   11   12 2
    22   11   13 1
    23   13   14 1
    24   13   37 1
    25   13   38 1
    26   14   15 1
    27   15   20 ar
    28   15   16 ar
    29   16   17 ar
    30   16   39 1
    31   17   18 ar
    32   17   40 1
    33   18   27 1
    34   18   19 ar
    35   19   20 ar
    36   19   21 1
    37   20   41 1
    38   21   26 ar
    39   21   22 ar
    40   22   23 ar
    41   22   42 1
    42   23   24 ar
    43   23   43 1
    44   24   25 ar
    45   24   44 1
    46   25   26 ar
    47   25   45 1
    48   26   27 1
@<TRIPOS>MOLECULE
ZINC16882198
   48    50     0     0     0
SMALL
USER_CHARGES
3-benzyl-5-ethyl-6-[(E)-2-(4-hydroxyphenyl)vinyl]-2-methyl-pyrimidin-4-one
@<TRIPOS>ATOM
      1 C1         -0.0808    1.7845   -0.8197 C.3       1 <0>        -0.1449
      2 C2         -0.6470    2.2656    0.5178 C.3       1 <0>        -0.0560
      3 C3         -1.9500    1.5608    0.7944 C.2       1 <0>        -0.2489
      4 C4         -1.9857    0.4114    1.5764 C.2       1 <0>         0.2079
      5 N1         -3.1656   -0.1973    1.8072 N.2       1 <0>        -0.5304
      6 C5         -4.2763    0.2706    1.3112 C.2       1 <0>         0.3954
      7 N2         -4.2994    1.3860    0.5432 N.am      1 <0>        -0.5167
      8 C6         -3.1573    2.0521    0.2737 C.2       1 <0>         0.5275
      9 O1         -3.1732    3.0604   -0.4139 O.2       1 <0>        -0.5318
     10 C7         -5.5720    1.8752    0.0070 C.3       1 <0>         0.1286
     11 C8         -6.1344    2.9265    0.9286 C.ar      1 <0>        -0.1195
     12 C9         -7.0745    2.5796    1.8809 C.ar      1 <0>        -0.1073
     13 C10        -7.5868    3.5431    2.7295 C.ar      1 <0>        -0.1234
     14 C11        -7.1668    4.8555    2.6188 C.ar      1 <0>        -0.1083
     15 C12        -6.2307    5.2034    1.6631 C.ar      1 <0>        -0.1220
     16 C13        -5.7144    4.2389    0.8180 C.ar      1 <0>        -0.0900
     17 C14        -5.5690   -0.4481    1.6001 C.3       1 <0>        -0.1195
     18 C15        -0.7473   -0.1350    2.1458 C.2       1 <0>        -0.1340
     19 C16        -0.7880   -1.2484    2.9023 C.2       1 <0>        -0.0425
     20 C17         0.4529   -1.7959    3.4729 C.ar      1 <0>        -0.0810
     21 C18         1.6769   -1.1650    3.2262 C.ar      1 <0>        -0.0885
     22 C19         2.8348   -1.6781    3.7672 C.ar      1 <0>        -0.1458
     23 C20         2.7901   -2.8272    4.5476 C.ar      1 <0>         0.1139
     24 C21         1.5775   -3.4609    4.7909 C.ar      1 <0>        -0.1470
     25 C22         0.4133   -2.9524    4.2591 C.ar      1 <0>        -0.0805
     26 O2          3.9353   -3.3327    5.0738 O.3       1 <0>        -0.4993
     27 H1          0.0900    0.7089   -0.7762 H         1 <0>         0.0524
     28 H2          0.8616    2.2943   -1.0198 H         1 <0>         0.0599
     29 H3         -0.7908    2.0077   -1.6161 H         1 <0>         0.0560
     30 H4          0.0630    2.0424    1.3142 H         1 <0>         0.0735
     31 H5         -0.8178    3.3412    0.4743 H         1 <0>         0.0778
     32 H6         -5.4082    2.3073   -0.9802 H         1 <0>         0.1092
     33 H7         -6.2758    1.0465   -0.0713 H         1 <0>         0.1061
     34 H8         -7.4058    1.5551    1.9644 H         1 <0>         0.1248
     35 H9         -8.3185    3.2714    3.4759 H         1 <0>         0.1258
     36 H10        -7.5704    5.6091    3.2788 H         1 <0>         0.1244
     37 H11        -5.9028    6.2288    1.5764 H         1 <0>         0.1249
     38 H12        -4.9833    4.5108    0.0710 H         1 <0>         0.1344
     39 H13        -5.3611   -1.3564    2.1656 H         1 <0>         0.1065
     40 H14        -6.2231    0.2008    2.1825 H         1 <0>         0.0963
     41 H15        -6.0577   -0.7084    0.6613 H         1 <0>         0.0951
     42 H16         0.1960    0.3560    1.9578 H         1 <0>         0.1370
     43 H17        -1.7314   -1.7394    3.0903 H         1 <0>         0.1379
     44 H18         1.7132   -0.2747    2.6159 H         1 <0>         0.1311
     45 H19         3.7797   -1.1895    3.5807 H         1 <0>         0.1321
     46 H20         1.5479   -4.3534    5.3983 H         1 <0>         0.1324
     47 H21        -0.5286   -3.4458    4.4484 H         1 <0>         0.1327
     48 H22         4.3807   -3.9741    4.5034 H         1 <0>         0.3934
@<TRIPOS>BOND
     1    1    2 1
     2    1   27 1
     3    1   28 1
     4    1   29 1
     5    2    3 1
     6    2   30 1
     7    2   31 1
     8    3    8 1
     9    3    4 2
    10    4    5 1
    11    4   18 1
    12    5    6 2
    13    6    7 1
    14    6   17 1
    15    7    8 am
    16    7   10 1
    17    8    9 2
    18   10   11 1
    19   10   32 1
    20   10   33 1
    21   11   16 ar
    22   11   12 ar
    23   12   13 ar
    24   12   34 1
    25   13   14 ar
    26   13   35 1
    27   14   15 ar
    28   14   36 1
    29   15   16 ar
    30   15   37 1
    31   16   38 1
    32   17   39 1
    33   17   40 1
    34   17   41 1
    35   18   19 2
    36   18   42 1
    37   19   20 1
    38   19   43 1
    39   20   25 ar
    40   20   21 ar
    41   21   22 ar
    42   21   44 1
    43   22   23 ar
    44   22   45 1
    45   23   24 ar
    46   23   26 1
    47   24   25 ar
    48   24   46 1
    49   25   47 1
    50   26   48 1
@<TRIPOS>MOLECULE
ZINC41575308
   52    54     0     0     0
SMALL
USER_CHARGES

@<TRIPOS>ATOM
      1 C1          0.0546    1.5071   -0.1016 C.3       1 <0>        -0.1518
      2 C2          0.0950   -0.0217   -0.1471 C.3       1 <0>        -0.0880
      3 H1         -0.9196   -0.4094   -0.2384 H         1 <0>         0.0703
      4 C3          0.9242   -0.4745   -1.3505 C.3       1 <0>        -0.1169
      5 C4          2.3484    0.0697   -1.2223 C.3       1 <0>        -0.1168
      6 C5          2.9837   -0.4622    0.0639 C.3       1 <0>        -0.0876
      7 H2          3.0125   -1.5513    0.0315 H         1 <0>         0.0740
      8 C6          2.1545   -0.0095    1.2674 C.3       1 <0>         0.1503
      9 H3          2.1257    1.0797    1.2998 H         1 <0>         0.0937
     10 C7          0.7303   -0.5536    1.1391 C.3       1 <0>        -0.1239
     11 N1          2.7628   -0.5188    2.4989 N.am      1 <0>        -0.7301
     12 C8          2.5092    0.0865    3.6761 C.2       1 <0>         0.5175
     13 O1          1.7773    1.0528    3.7159 O.2       1 <0>        -0.5133
     14 C9          3.1349   -0.4374    4.9430 C.3       1 <0>        -0.0726
     15 C10         2.6941    0.4099    6.1087 C.2       1 <0>         0.0724
     16 C11         2.1078   -0.1711    7.1907 C.2       1 <0>        -0.1915
     17 S1          1.8101    1.2648    8.2146 S.3       1 <0>         0.0284
     18 C12         2.4965    2.4771    7.0938 C.2       1 <0>         0.1505
     19 N2          2.8796    1.7075    6.0847 N.2       1 <0>        -0.4365
     20 C13         2.6114    3.9424    7.2524 C.ar      1 <0>         0.2035
     21 C14         2.1464    4.5511    8.4187 C.ar      1 <0>        -0.1461
     22 C15         2.2615    5.9234    8.5522 C.ar      1 <0>        -0.0700
     23 C16         2.8379    6.6443    7.5154 C.ar      1 <0>        -0.1596
     24 C17         3.2777    5.9769    6.3869 C.ar      1 <0>         0.1072
     25 N3          3.1613    4.6687    6.2860 N.ar      1 <0>        -0.4436
     26 C18         4.4079    0.0820    0.1921 C.3       1 <0>        -0.0907
     27 C19         5.2755   -0.4903   -0.9306 C.3       1 <0>        -0.1487
     28 C20         4.3819    1.6083    0.0890 C.3       1 <0>        -0.1527
     29 H4          1.0693    1.8947   -0.0103 H         1 <0>         0.0598
     30 H5         -0.3980    1.8860   -1.0179 H         1 <0>         0.0533
     31 H6         -0.5361    1.8296    0.7558 H         1 <0>         0.0546
     32 H7          0.9529   -1.5636   -1.3829 H         1 <0>         0.0615
     33 H8          0.4716   -0.0955   -2.2669 H         1 <0>         0.0639
     34 H9          2.9391   -0.2528   -2.0797 H         1 <0>         0.0685
     35 H10         2.3197    1.1588   -1.1899 H         1 <0>         0.0729
     36 H11         0.1395   -0.2311    1.9965 H         1 <0>         0.0667
     37 H12         0.7590   -1.6428    1.1068 H         1 <0>         0.0614
     38 H13         3.3482   -1.2916    2.4672 H         1 <0>         0.3969
     39 H14         2.8206   -1.4686    5.1040 H         1 <0>         0.1089
     40 H15         4.2207   -0.3980    4.8552 H         1 <0>         0.1093
     41 H16         1.8839   -1.2107    7.3786 H         1 <0>         0.2025
     42 H17         1.7027    3.9595    9.2058 H         1 <0>         0.1387
     43 H18         1.9103    6.4227    9.4432 H         1 <0>         0.1445
     44 H19         2.9417    7.7168    7.5893 H         1 <0>         0.1427
     45 H20         3.7265    6.5356    5.5789 H         1 <0>         0.1646
     46 H21         4.8229   -0.2100    1.1568 H         1 <0>         0.0697
     47 H22         4.9181   -0.1192   -1.8911 H         1 <0>         0.0569
     48 H23         6.3103   -0.1808   -0.7838 H         1 <0>         0.0538
     49 H24         5.2163   -1.5786   -0.9168 H         1 <0>         0.0534
     50 H25         3.7638    2.0160    0.8889 H         1 <0>         0.0567
     51 H26         5.3965    1.9960    0.1804 H         1 <0>         0.0530
     52 H27         3.9669    1.9003   -0.8756 H         1 <0>         0.0585
@<TRIPOS>BOND
     1    1    2 1
     2    1   29 1
     3    1   30 1
     4    1   31 1
     5    2    3 1
     6    2   10 1
     7    2    4 1
     8    4    5 1
     9    4   32 1
    10    4   33 1
    11    5    6 1
    12    5   34 1
    13    5   35 1
    14    6    7 1
    15    6    8 1
    16    6   26 1
    17    8    9 1
    18    8   10 1
    19    8   11 1
    20   10   36 1
    21   10   37 1
    22   11   12 am
    23   11   38 1
    24   12   13 2
    25   12   14 1
    26   14   15 1
    27   14   39 1
    28   14   40 1
    29   15   19 1
    30   15   16 2
    31   16   17 1
    32   16   41 1
    33   17   18 1
    34   18   19 2
    35   18   20 1
    36   20   25 ar
    37   20   21 ar
    38   21   22 ar
    39   21   42 1
    40   22   23 ar
    41   22   43 1
    42   23   24 ar
    43   23   44 1
    44   24   25 ar
    45   24   45 1
    46   26   27 1
    47   26   28 1
    48   26   46 1
    49   27   47 1
    50   27   48 1
    51   27   49 1
    52   28   50 1
    53   28   51 1
    54   28   52 1
@<TRIPOS>MOLECULE
ZINC12270266
   42    45     0     0     0
SMALL
USER_CHARGES

@<TRIPOS>ATOM
      1 C1         -0.0167    1.3781    0.0096 C.ar      1 <0>        -0.1121
      2 C2          1.1709    2.0855    0.0021 C.ar      1 <0>        -0.1147
      3 C3          2.3773    1.4107   -0.0130 C.ar      1 <0>        -0.0992
      4 C4          2.3960    0.0285   -0.0201 C.ar      1 <0>        -0.0957
      5 C5          1.2084   -0.6789   -0.0117 C.ar      1 <0>        -0.1077
      6 C6          0.0021   -0.0041    0.0020 C.ar      1 <0>        -0.1137
      7 C7          3.7112   -0.7071   -0.0376 C.3       1 <0>         0.2777
      8 H1          4.5034   -0.0434    0.3089 H         1 <0>         0.1201
      9 C8          4.0144   -1.1607   -1.4423 C.2       1 <0>        -0.1532
     10 C9          4.8433   -0.6038   -2.3589 C.2       1 <0>        -0.1402
     11 C10         4.9677   -1.1998   -3.5999 C.2       1 <0>        -0.1554
     12 C11         4.2571   -2.3236   -3.8635 C.2       1 <0>        -0.1721
     13 S1          3.3813   -2.5753   -2.3284 S.3       1 <0>         0.0446
     14 N1          3.6301   -1.8734    0.8453 N.am      1 <0>        -0.7161
     15 C12         4.7514   -2.3850    1.3907 C.2       1 <0>         0.5526
     16 O1          5.8309   -1.8783    1.1497 O.2       1 <0>        -0.5229
     17 C13         4.6702   -3.5530    2.2750 C.2       1 <0>        -0.1359
     18 C14         5.7925   -4.0650    2.8208 C.2       1 <0>        -0.0058
     19 C15         5.7113   -5.2338    3.7056 C.2       1 <0>         0.2641
     20 N2          4.6046   -5.8590    4.0265 N.2       1 <0>        -0.4558
     21 C16         4.9039   -6.8813    4.8525 C.ar      1 <0>         0.0227
     22 C17         4.1377   -7.8613    5.4938 C.ar      1 <0>        -0.0571
     23 C18         4.7481   -8.7873    6.2905 C.ar      1 <0>        -0.1181
     24 C19         6.1242   -8.7667    6.4720 C.ar      1 <0>        -0.0858
     25 C20         6.8988   -7.8100    5.8497 C.ar      1 <0>        -0.0937
     26 C21         6.2987   -6.8607    5.0360 C.ar      1 <0>         0.0139
     27 O2          6.7644   -5.8262    4.3036 O.3       1 <0>        -0.2001
     28 H2         -0.9591    1.9053    0.0259 H         1 <0>         0.1252
     29 H3          1.1563    3.1654    0.0076 H         1 <0>         0.1268
     30 H4          3.3051    1.9634   -0.0196 H         1 <0>         0.1265
     31 H5          1.2231   -1.7588   -0.0176 H         1 <0>         0.1202
     32 H6         -0.9258   -0.5567    0.0082 H         1 <0>         0.1264
     33 H7          5.3980    0.2925   -2.1233 H         1 <0>         0.1337
     34 H8          5.6210   -0.7762   -4.3483 H         1 <0>         0.1351
     35 H9          4.2308   -2.9154   -4.7666 H         1 <0>         0.1859
     36 H10         2.7694   -2.2773    1.0375 H         1 <0>         0.4065
     37 H11         3.7119   -4.0028    2.4889 H         1 <0>         0.1485
     38 H12         6.7508   -3.6153    2.6069 H         1 <0>         0.1631
     39 H13         3.0664   -7.8849    5.3592 H         1 <0>         0.1387
     40 H14         4.1546   -9.5425    6.7843 H         1 <0>         0.1404
     41 H15         6.5920   -9.5055    7.1058 H         1 <0>         0.1440
     42 H16         7.9688   -7.8000    5.9959 H         1 <0>         0.1390
@<TRIPOS>BOND
     1    1    6 ar
     2    1    2 ar
     3    1   28 1
     4    2    3 ar
     5    2   29 1
     6    3    4 ar
     7    3   30 1
     8    4    5 ar
     9    4    7 1
    10    5    6 ar
    11    5   31 1
    12    6   32 1
    13    7    8 1
    14    7    9 1
    15    7   14 1
    16    9   13 1
    17    9   10 2
    18   10   11 1
    19   10   33 1
    20   11   12 2
    21   11   34 1
    22   12   13 1
    23   12   35 1
    24   14   15 am
    25   14   36 1
    26   15   16 2
    27   15   17 1
    28   17   18 2
    29   17   37 1
    30   18   19 1
    31   18   38 1
    32   19   27 1
    33   19   20 2
    34   20   21 1
    35   21   26 ar
    36   21   22 ar
    37   22   23 ar
    38   22   39 1
    39   23   24 ar
    40   23   40 1
    41   24   25 ar
    42   24   41 1
    43   25   26 ar
    44   25   42 1
    45   26   27 1
@<TRIPOS>MOLECULE
ZINC00425935
   46    48     0     0     0
SMALL
USER_CHARGES
5-(4-ethoxyphenyl)-N-ethyl-1,4-diazabicyclo[4.3.0]nona-6,8-diene-4-carbothioamide
@<TRIPOS>ATOM
      1 C1          2.5476    7.0647   -3.9032 C.3       1 <0>        -0.1698
      2 C2          1.0383    7.2460   -3.7299 C.3       1 <0>         0.1166
      3 N1          0.6080    6.5981   -2.4884 N.pl3     1 <0>        -0.6819
      4 C3         -0.6900    6.6294   -2.1268 C.2       1 <0>         0.5721
      5 S1         -1.8558    7.3095   -3.1799 S.2       1 <0>        -0.6374
      6 N2         -1.0701    6.1252   -0.9361 N.pl3     1 <0>        -0.5708
      7 C4         -2.4916    6.0409   -0.5686 C.3       1 <0>         0.0865
      8 C5         -2.7569    6.9470    0.6382 C.3       1 <0>         0.0912
      9 N3         -1.7137    6.7275    1.6461 N.pl3     1 <0>        -0.4431
     10 C6         -1.7697    7.0559    2.9656 C.2       1 <0>         0.0025
     11 C7         -0.6033    6.6955    3.5411 C.2       1 <0>        -0.2000
     12 C8          0.2034    6.1190    2.5379 C.2       1 <0>        -0.1663
     13 C9         -0.4998    6.1480    1.3951 C.2       1 <0>        -0.0044
     14 C10        -0.0730    5.6411    0.0368 C.3       1 <0>         0.2527
     15 H1          0.9127    6.0324   -0.2149 H         1 <0>         0.1058
     16 C11        -0.0433    4.1344    0.0362 C.ar      1 <0>        -0.1444
     17 C12         1.0960    3.4667   -0.3738 C.ar      1 <0>        -0.0628
     18 C13         1.1256    2.0856   -0.3757 C.ar      1 <0>        -0.1486
     19 C14         0.0110    1.3685    0.0342 C.ar      1 <0>         0.1456
     20 C15        -1.1327    2.0407    0.4401 C.ar      1 <0>        -0.2062
     21 C16        -1.1555    3.4220    0.4451 C.ar      1 <0>        -0.0494
     22 O1          0.0375    0.0097    0.0328 O.3       1 <0>        -0.3134
     23 C17        -1.1461   -0.6627    0.4676 C.3       1 <0>         0.0531
     24 C18        -0.9282   -2.1755    0.3975 C.3       1 <0>        -0.1536
     25 H2          3.0673    7.5168   -3.0584 H         1 <0>         0.0621
     26 H3          2.7830    6.0013   -3.9477 H         1 <0>         0.0633
     27 H4          2.8678    7.5467   -4.8269 H         1 <0>         0.0850
     28 H5          0.5187    6.7939   -4.5747 H         1 <0>         0.0914
     29 H6          0.8029    8.3094   -3.6853 H         1 <0>         0.0866
     30 H7          1.2572    6.1467   -1.9266 H         1 <0>         0.3956
     31 H8         -3.1046    6.3656   -1.4093 H         1 <0>         0.1474
     32 H9         -2.7407    5.0112   -0.3122 H         1 <0>         0.0910
     33 H10        -2.7427    7.9896    0.3206 H         1 <0>         0.0930
     34 H11        -3.7317    6.7095    1.0644 H         1 <0>         0.1057
     35 H12        -2.6040    7.5248    3.4661 H         1 <0>         0.1652
     36 H13        -0.3365    6.8248    4.5796 H         1 <0>         0.1397
     37 H14         1.2015    5.7267    2.6657 H         1 <0>         0.1372
     38 H15         1.9633    4.0254   -0.6931 H         1 <0>         0.1287
     39 H16         2.0156    1.5645   -0.6963 H         1 <0>         0.1361
     40 H17        -2.0032    1.4846    0.7554 H         1 <0>         0.1312
     41 H18        -2.0442    3.9458    0.7649 H         1 <0>         0.1234
     42 H19        -1.3709   -0.3752    1.4947 H         1 <0>         0.0639
     43 H20        -1.9794   -0.3854   -0.1780 H         1 <0>         0.0634
     44 H21        -0.0949   -2.4528    1.0430 H         1 <0>         0.0677
     45 H22        -1.8310   -2.6884    0.7290 H         1 <0>         0.0807
     46 H23        -0.7034   -2.4630   -0.6296 H         1 <0>         0.0675
@<TRIPOS>BOND
     1    1    2 1
     2    1   25 1
     3    1   26 1
     4    1   27 1
     5    2    3 1
     6    2   28 1
     7    2   29 1
     8    3    4 1
     9    3   30 1
    10    4    5 2
    11    4    6 1
    12    6   14 1
    13    6    7 1
    14    7    8 1
    15    7   31 1
    16    7   32 1
    17    8    9 1
    18    8   33 1
    19    8   34 1
    20    9   13 1
    21    9   10 1
    22   10   11 2
    23   10   35 1
    24   11   12 1
    25   11   36 1
    26   12   13 2
    27   12   37 1
    28   13   14 1
    29   14   15 1
    30   14   16 1
    31   16   21 ar
    32   16   17 ar
    33   17   18 ar
    34   17   38 1
    35   18   19 ar
    36   18   39 1
    37   19   20 ar
    38   19   22 1
    39   20   21 ar
    40   20   40 1
    41   21   41 1
    42   22   23 1
    43   23   24 1
    44   23   42 1
    45   23   43 1
    46   24   44 1
    47   24   45 1
    48   24   46 1
@<TRIPOS>MOLECULE
ZINC19607488
   54    55     0     0     0
SMALL
USER_CHARGES
(2S)-1-(4-tert-butylphenoxy)-3-[(2R,6R)-2,6-dimethylmorpholin-4-yl]propan-2-ol
@<TRIPOS>ATOM
      1 C1          2.2410   -6.4577  -11.8717 C.3       1 <0>        -0.1464
      2 C2          2.9922   -5.5394  -10.9056 C.3       1 <0>         0.0833
      3 H1          3.9034   -6.0246  -10.5258 H         1 <0>         0.0727
      4 C3          2.0606   -5.1282   -9.7624 C.3       1 <0>         0.0247
      5 N1          2.7630   -4.1855   -8.8797 N.3       1 <0>        -0.5184
      6 C4          3.1981   -2.9970   -9.6276 C.3       1 <0>         0.0203
      7 C5          4.1183   -3.4296  -10.7721 C.3       1 <0>         0.0913
      8 H2          4.3746   -2.5810  -11.4234 H         1 <0>         0.1049
      9 O1          3.4297   -4.3692  -11.6017 O.3       1 <0>        -0.3845
     10 C6          5.3769   -4.0822  -10.1970 C.3       1 <0>        -0.1746
     11 C7          1.9218   -3.8089   -7.7357 C.3       1 <0>         0.0633
     12 C8          2.7618   -3.0343   -6.7182 C.3       1 <0>         0.1279
     13 H3          3.2298   -2.1510   -7.1772 H         1 <0>         0.0621
     14 C9          1.8857   -2.6420   -5.5268 C.3       1 <0>         0.0260
     15 O2          2.6383   -1.8201   -4.6323 O.3       1 <0>        -0.3162
     16 C10         2.0023   -1.3822   -3.5139 C.ar      1 <0>         0.1246
     17 C11         2.6732   -0.5804   -2.6020 C.ar      1 <0>        -0.1481
     18 C12         2.0244   -0.1362   -1.4662 C.ar      1 <0>        -0.0758
     19 C13         0.7074   -0.4901   -1.2379 C.ar      1 <0>        -0.1050
     20 C14         0.0383   -1.2937   -2.1424 C.ar      1 <0>        -0.0812
     21 C15         0.6809   -1.7359   -3.2825 C.ar      1 <0>        -0.2052
     22 C16         0.0021   -0.0041    0.0020 C.3       1 <0>        -0.0259
     23 C17        -0.0187    1.5258    0.0104 C.3       1 <0>        -0.1411
     24 C18         0.7421   -0.5109    1.2415 C.3       1 <0>        -0.1412
     25 C19        -1.4333   -0.5336    0.0129 C.3       1 <0>        -0.1472
     26 O3          3.8400   -3.8560   -6.2664 O.3       1 <0>        -0.5762
     27 H4          1.9048   -7.3575  -11.3357 H         1 <0>         0.0730
     28 H5          2.9097   -6.7497  -12.6948 H         1 <0>         0.0677
     29 H6          1.3684   -5.9261  -12.2791 H         1 <0>         0.0629
     30 H7          1.1627   -4.6463  -10.1765 H         1 <0>         0.0433
     31 H8          1.7669   -6.0203   -9.1898 H         1 <0>         0.0871
     32 H9          2.3183   -2.4794  -10.0375 H         1 <0>         0.0413
     33 H10         3.7418   -2.3185   -8.9538 H         1 <0>         0.0880
     34 H11         6.0376   -4.3928  -11.0199 H         1 <0>         0.0575
     35 H12         5.0939   -4.9628   -9.6016 H         1 <0>         0.0750
     36 H13         5.9041   -3.3602   -9.5560 H         1 <0>         0.0648
     37 H14         1.0918   -3.1763   -8.0834 H         1 <0>         0.0522
     38 H15         1.5181   -4.7164   -7.2630 H         1 <0>         0.0879
     39 H16         1.0073   -2.0852   -5.8852 H         1 <0>         0.0675
     40 H17         1.5548   -3.5494   -5.0004 H         1 <0>         0.0733
     41 H18         3.7018   -0.3034   -2.7801 H         1 <0>         0.1300
     42 H19         2.5464    0.4878   -0.7558 H         1 <0>         0.1283
     43 H20        -0.9889   -1.5727   -1.9594 H         1 <0>         0.1290
     44 H21         0.1565   -2.3600   -3.9909 H         1 <0>         0.1251
     45 H22        -0.5335    1.8805    0.9155 H         1 <0>         0.0594
     46 H23        -0.5508    1.8901   -0.8807 H         1 <0>         0.0564
     47 H24         1.0133    1.9066    0.0025 H         1 <0>         0.0573
     48 H25         0.2272   -0.1561    2.1465 H         1 <0>         0.0594
     49 H26         1.7741   -0.1301    1.2336 H         1 <0>         0.0574
     50 H27         0.7570   -1.6108    1.2355 H         1 <0>         0.0567
     51 H28        -1.9481   -0.1788    0.9180 H         1 <0>         0.0598
     52 H29        -1.4184   -1.6335    0.0068 H         1 <0>         0.0587
     53 H30        -1.9653   -0.1691   -0.8782 H         1 <0>         0.0584
     54 H31         4.5556   -3.4670   -5.5270 H         1 <0>         0.4087
@<TRIPOS>BOND
     1    1    2 1
     2    1   27 1
     3    1   28 1
     4    1   29 1
     5    2    3 1
     6    2    9 1
     7    2    4 1
     8    4    5 1
     9    4   30 1
    10    4   31 1
    11    5    6 1
    12    5   11 1
    13    6    7 1
    14    6   32 1
    15    6   33 1
    16    7    8 1
    17    7    9 1
    18    7   10 1
    19   10   34 1
    20   10   35 1
    21   10   36 1
    22   11   12 1
    23   11   37 1
    24   11   38 1
    25   12   13 1
    26   12   14 1
    27   12   26 1
    28   14   15 1
    29   14   39 1
    30   14   40 1
    31   15   16 1
    32   16   21 ar
    33   16   17 ar
    34   17   18 ar
    35   17   41 1
    36   18   19 ar
    37   18   42 1
    38   19   20 ar
    39   19   22 1
    40   20   21 ar
    41   20   43 1
    42   21   44 1
    43   22   23 1
    44   22   24 1
    45   22   25 1
    46   23   45 1
    47   23   46 1
    48   23   47 1
    49   24   48 1
    50   24   49 1
    51   24   50 1
    52   25   51 1
    53   25   52 1
    54   25   53 1
    55   26   54 1
@<TRIPOS>MOLECULE
ZINC37302919
   38    39     0     0     0
SMALL
USER_CHARGES

@<TRIPOS>ATOM
      1 C1         -0.0187    1.5258    0.0104 C.3       1 <0>        -0.1610
      2 C2          0.0021   -0.0041    0.0020 C.3       1 <0>         0.1462
      3 H1          0.5123   -0.3556   -0.8948 H         1 <0>         0.1032
      4 C3          0.7421   -0.5109    1.2415 C.3       1 <0>         0.0498
      5 O1          0.1431    0.0444    2.4141 O.3       1 <0>        -0.3889
      6 C4          0.7626   -0.3678    3.6341 C.3       1 <0>         0.0303
      7 N1         -1.3723   -0.5112    0.0124 N.am      1 <0>        -0.7173
      8 C5         -2.0508   -0.6427   -1.1446 C.2       1 <0>         0.5581
      9 O2         -1.5223   -0.3406   -2.1970 O.2       1 <0>        -0.5310
     10 C6         -3.4364   -1.1539   -1.1342 C.ar      1 <0>        -0.1161
     11 C7         -4.0460   -1.4958    0.0760 C.ar      1 <0>        -0.0829
     12 C8         -5.3370   -1.9716    0.0857 C.ar      1 <0>        -0.0983
     13 C9         -6.0384   -2.1134   -1.1144 C.ar      1 <0>         0.0081
     14 C10        -5.4289   -1.7721   -2.3245 C.ar      1 <0>        -0.0756
     15 C11        -4.1400   -1.2904   -2.3339 C.ar      1 <0>        -0.0576
     16 C12        -7.4243   -2.6247   -1.1039 C.2       1 <0>         0.1499
     17 N2         -8.2510   -2.8364   -2.1191 N.2       1 <0>        -0.4805
     18 C13        -9.4615   -3.3005   -1.9264 C.2       1 <0>         0.0401
     19 C14        -9.8896   -3.5743   -0.6635 C.2       1 <0>        -0.1773
     20 S1         -8.4361   -3.1322    0.2802 S.3       1 <0>         0.0401
     21 C15       -10.3778   -3.5302   -3.1006 C.3       1 <0>         0.0353
     22 Cl1       -10.1579   -5.2110   -3.7148 Cl        1 <0>        -0.1650
     23 H2          1.0039    1.9031    0.0027 H         1 <0>         0.0657
     24 H3         -0.5459    1.8868   -0.8726 H         1 <0>         0.0613
     25 H4         -0.5289    1.8773    0.9072 H         1 <0>         0.0678
     26 H5          0.6803   -1.5984    1.2822 H         1 <0>         0.0581
     27 H6          1.7879   -0.2080    1.1895 H         1 <0>         0.0684
     28 H7          0.7013   -1.4523    3.7244 H         1 <0>         0.0425
     29 H8          1.8089   -0.0620    3.6317 H         1 <0>         0.0435
     30 H9          0.2503    0.0965    4.4767 H         1 <0>         0.0883
     31 H10        -1.7940   -0.7522    0.8520 H         1 <0>         0.4046
     32 H11        -3.5037   -1.3868    1.0036 H         1 <0>         0.1358
     33 H12        -5.8082   -2.2358    1.0209 H         1 <0>         0.1345
     34 H13        -5.9709   -1.8824   -3.2521 H         1 <0>         0.1449
     35 H14        -3.6706   -1.0220   -3.2688 H         1 <0>         0.1468
     36 H15       -10.8418   -3.9559   -0.3255 H         1 <0>         0.2051
     37 H16       -11.4123   -3.3904   -2.7869 H         1 <0>         0.1121
     38 H17       -10.1390   -2.8199   -3.8921 H         1 <0>         0.1110
@<TRIPOS>BOND
     1    1    2 1
     2    1   23 1
     3    1   24 1
     4    1   25 1
     5    2    3 1
     6    2    4 1
     7    2    7 1
     8    4    5 1
     9    4   26 1
    10    4   27 1
    11    5    6 1
    12    6   28 1
    13    6   29 1
    14    6   30 1
    15    7    8 am
    16    7   31 1
    17    8    9 2
    18    8   10 1
    19   10   15 ar
    20   10   11 ar
    21   11   12 ar
    22   11   32 1
    23   12   13 ar
    24   12   33 1
    25   13   14 ar
    26   13   16 1
    27   14   15 ar
    28   14   34 1
    29   15   35 1
    30   16   20 1
    31   16   17 2
    32   17   18 1
    33   18   19 2
    34   18   21 1
    35   19   20 1
    36   19   36 1
    37   21   22 1
    38   21   37 1
    39   21   38 1
@<TRIPOS>MOLECULE
ZINC47856178
   43    44     0     0     0
SMALL
USER_CHARGES

@<TRIPOS>ATOM
      1 C1         -0.3144    0.8572   -2.6869 C.3       1 <0>        -0.1386
      2 C2         -0.2174   -0.5003   -1.9879 C.3       1 <0>        -0.1049
      3 S1         -1.8501   -0.9718   -1.3533 S.3       1 <0>        -0.1285
      4 C3         -1.5747   -2.5344   -0.5871 C.ar      1 <0>        -0.1126
      5 C4         -0.3042   -3.0929   -0.5821 C.ar      1 <0>        -0.1155
      6 C5         -0.0908   -4.3185    0.0199 C.ar      1 <0>        -0.1167
      7 C6         -1.1402   -4.9918    0.6181 C.ar      1 <0>        -0.1041
      8 C7         -2.4093   -4.4430    0.6174 C.ar      1 <0>        -0.1031
      9 C8         -2.6318   -3.2113    0.0214 C.ar      1 <0>         0.1833
     10 N1         -3.9166   -2.6503    0.0252 N.am      1 <0>        -0.6816
     11 C9         -4.9999   -3.4464   -0.0704 C.2       1 <0>         0.7073
     12 O1         -4.8673   -4.6551   -0.0784 O.2       1 <0>        -0.5690
     13 N2         -6.2301   -2.9028   -0.1573 N.am      1 <0>        -0.6268
     14 C10        -6.3898   -1.4466   -0.1477 C.3       1 <0>         0.0741
     15 C11        -7.4076   -3.7682   -0.2613 C.3       1 <0>         0.1426
     16 C12        -7.9286   -4.0911    1.1406 C.3       1 <0>        -0.0843
     17 C13        -9.1399   -4.9813    1.0336 C.ar      1 <0>         0.1322
     18 C14        -9.1636   -6.1867    1.7097 C.ar      1 <0>        -0.1655
     19 C15       -10.2826   -6.9982    1.6046 C.ar      1 <0>        -0.0721
     20 C16       -11.3408   -6.5650    0.8199 C.ar      1 <0>        -0.1775
     21 C17       -11.2453   -5.3475    0.1734 C.ar      1 <0>         0.1027
     22 N3        -10.1669   -4.5988    0.3005 N.ar      1 <0>        -0.4838
     23 H1          0.6666    1.1404   -3.0682 H         1 <0>         0.0771
     24 H2         -1.0204    0.7900   -3.5146 H         1 <0>         0.0669
     25 H3         -0.6586    1.6082   -1.9758 H         1 <0>         0.0668
     26 H4          0.1268   -1.2514   -2.6989 H         1 <0>         0.0888
     27 H5          0.4886   -0.4331   -1.1601 H         1 <0>         0.0885
     28 H6          0.5174   -2.5701   -1.0490 H         1 <0>         0.1258
     29 H7          0.8984   -4.7519    0.0230 H         1 <0>         0.1270
     30 H8         -0.9681   -5.9494    1.0868 H         1 <0>         0.1292
     31 H9         -3.2266   -4.9721    1.0850 H         1 <0>         0.1469
     32 H10        -4.0259   -1.6891    0.0967 H         1 <0>         0.4079
     33 H11        -6.3503   -1.0700   -1.1699 H         1 <0>         0.0628
     34 H12        -7.3510   -1.1894    0.2973 H         1 <0>         0.0818
     35 H13        -5.5870   -0.9968    0.4365 H         1 <0>         0.0651
     36 H14        -8.1851   -3.2571   -0.8291 H         1 <0>         0.0920
     37 H15        -7.1350   -4.6931   -0.7696 H         1 <0>         0.0856
     38 H16        -7.1511   -4.6022    1.7084 H         1 <0>         0.0837
     39 H17        -8.2012   -3.1662    1.6488 H         1 <0>         0.0838
     40 H18        -8.3209   -6.4926    2.3118 H         1 <0>         0.1348
     41 H19       -10.3291   -7.9454    2.1213 H         1 <0>         0.1353
     42 H20       -12.2281   -7.1716    0.7152 H         1 <0>         0.1354
     43 H21       -12.0650   -5.0029   -0.4396 H         1 <0>         0.1570
@<TRIPOS>BOND
     1    1    2 1
     2    1   23 1
     3    1   24 1
     4    1   25 1
     5    2    3 1
     6    2   26 1
     7    2   27 1
     8    3    4 1
     9    4    9 ar
    10    4    5 ar
    11    5    6 ar
    12    5   28 1
    13    6    7 ar
    14    6   29 1
    15    7    8 ar
    16    7   30 1
    17    8    9 ar
    18    8   31 1
    19    9   10 1
    20   10   11 am
    21   10   32 1
    22   11   12 2
    23   11   13 am
    24   13   14 1
    25   13   15 1
    26   14   33 1
    27   14   34 1
    28   14   35 1
    29   15   16 1
    30   15   36 1
    31   15   37 1
    32   16   17 1
    33   16   38 1
    34   16   39 1
    35   17   22 ar
    36   17   18 ar
    37   18   19 ar
    38   18   40 1
    39   19   20 ar
    40   19   41 1
    41   20   21 ar
    42   20   42 1
    43   21   22 ar
    44   21   43 1
@<TRIPOS>MOLECULE
ZINC61729931
   41    42     0     0     0
SMALL
USER_CHARGES

@<TRIPOS>ATOM
      1 C1         -0.0184    1.5028    0.0103 C.3       1 <0>        -0.1171
      2 C2          0.0021   -0.0041    0.0020 C.ar      1 <0>        -0.0813
      3 C3          0.0057   -0.6883   -1.1997 C.ar      1 <0>        -0.1154
      4 C4          0.0244   -2.0706   -1.2107 C.ar      1 <0>        -0.1115
      5 C5          0.0391   -2.7719   -0.0203 C.ar      1 <0>        -0.1016
      6 C6          0.0355   -2.0879    1.1864 C.ar      1 <0>         0.0915
      7 C7          0.0229   -0.7004    1.1947 C.ar      1 <0>        -0.0981
      8 C8          0.0256    0.0460    2.5038 C.3       1 <0>        -0.1129
      9 O1          0.0500   -2.7755    2.3585 O.3       1 <0>        -0.3162
     10 C9          1.3300   -3.0868    2.9123 C.3       1 <0>         0.0408
     11 C10         1.1457   -3.8568    4.2215 C.3       1 <0>         0.1289
     12 C11         2.5096   -4.0814    4.8774 C.3       1 <0>        -0.1589
     13 S1          2.2911   -4.9944    6.4296 S.3       1 <0>         0.0960
     14 C12         3.9291   -5.1709    7.0546 C.2       1 <0>         0.0183
     15 N1          5.0839   -4.7498    6.5544 N.2       1 <0>        -0.2880
     16 N2          6.1797   -4.9653    7.1404 N.2       1 <0>        -0.2766
     17 C13         6.2490   -5.6194    8.2820 C.2       1 <0>         0.0757
     18 S2          4.5124   -5.9630    8.5507 S.3       1 <0>         0.0188
     19 C14         7.4475   -5.9720    9.1248 C.3       1 <0>        -0.0622
     20 O2          0.5343   -5.1194    3.9494 O.3       1 <0>        -0.5397
     21 C15         0.0585   -4.2788   -0.0330 C.3       1 <0>        -0.1147
     22 H1          1.0042    1.8801    0.0026 H         1 <0>         0.0716
     23 H2         -0.5455    1.8639   -0.8728 H         1 <0>         0.0685
     24 H3         -0.5286    1.8543    0.9071 H         1 <0>         0.0700
     25 H4         -0.0065   -0.1419   -2.1312 H         1 <0>         0.1256
     26 H5          0.0272   -2.6027   -2.1505 H         1 <0>         0.1268
     27 H6         -1.0013    0.2123    2.8294 H         1 <0>         0.0747
     28 H7          0.5545   -0.5403    3.2552 H         1 <0>         0.0650
     29 H8          0.5255    1.0058    2.3738 H         1 <0>         0.0693
     30 H9          1.8920   -3.6988    2.2068 H         1 <0>         0.0620
     31 H10         1.8757   -2.1636    3.1075 H         1 <0>         0.0670
     32 H11         0.5091   -3.2823    4.8944 H         1 <0>         0.1222
     33 H12         3.1462   -4.6559    4.2045 H         1 <0>         0.1051
     34 H13         2.9760   -3.1183    5.0849 H         1 <0>         0.1122
     35 H14         7.6358   -5.1725    9.8413 H         1 <0>         0.0988
     36 H15         7.2544   -6.9016    9.6601 H         1 <0>         0.0932
     37 H16         8.3192   -6.0970    8.4824 H         1 <0>         0.1028
     38 H17         1.0469   -5.6848    3.3556 H         1 <0>         0.3783
     39 H18         1.0908   -4.6288   -0.0409 H         1 <0>         0.0661
     40 H19        -0.4463   -4.6561    0.8563 H         1 <0>         0.0767
     41 H20        -0.4549   -4.6412   -0.9236 H         1 <0>         0.0680
@<TRIPOS>BOND
     1    1    2 1
     2    1   22 1
     3    1   23 1
     4    1   24 1
     5    2    7 ar
     6    2    3 ar
     7    3    4 ar
     8    3   25 1
     9    4    5 ar
    10    4   26 1
    11    5    6 ar
    12    5   21 1
    13    6    7 ar
    14    6    9 1
    15    7    8 1
    16    8   27 1
    17    8   28 1
    18    8   29 1
    19    9   10 1
    20   10   11 1
    21   10   30 1
    22   10   31 1
    23   11   12 1
    24   11   20 1
    25   11   32 1
    26   12   13 1
    27   12   33 1
    28   12   34 1
    29   13   14 1
    30   14   18 1
    31   14   15 2
    32   15   16 1
    33   16   17 2
    34   17   18 1
    35   17   19 1
    36   19   35 1
    37   19   36 1
    38   19   37 1
    39   20   38 1
    40   21   39 1
    41   21   40 1
    42   21   41 1
@<TRIPOS>MOLECULE
ZINC00193548
   32    32     0     0     0
SMALL
USER_CHARGES
2-bromo-N-(5-isopropyl-1,3,4-thiadiazol-2-yl)-3-methyl-butanamide
@<TRIPOS>ATOM
      1 C1          0.2245    3.9228   -1.9436 C.3       1 <0>        -0.1443
      2 C2          1.3311    3.3752   -1.0399 C.3       1 <0>         0.0040
      3 C3          1.2943    4.0993    0.3074 C.3       1 <0>        -0.1445
      4 C4          1.1181    1.8992   -0.8229 C.2       1 <0>         0.0622
      5 N1          0.0962    1.2615   -0.2877 N.2       1 <0>        -0.2408
      6 N2          0.1020    0.0029   -0.1917 N.2       1 <0>        -0.2871
      7 C5          1.1198   -0.7255   -0.6177 C.2       1 <0>         0.2613
      8 S1          2.1803    0.5153   -1.2185 S.3       1 <0>         0.0185
      9 N3          1.2944   -2.1050   -0.5926 N.am      1 <0>        -0.6095
     10 C6          0.3343   -2.8965   -0.0747 C.2       1 <0>         0.5147
     11 O1         -0.6819   -2.4056    0.3696 O.2       1 <0>        -0.4389
     12 C7          0.5234   -4.3913   -0.0475 C.3       1 <0>        -0.0671
     13 H1          1.5223   -4.6377   -0.4075 H         1 <0>         0.1259
     14 C8         -0.5211   -5.0539   -0.9481 C.3       1 <0>        -0.0847
     15 C9         -0.3083   -4.6017   -2.3941 C.3       1 <0>        -0.1537
     16 C10        -0.3768   -6.5747   -0.8629 C.3       1 <0>        -0.1546
     17 Br1         0.3105   -5.0455    1.7942 Br        1 <0>        -0.0872
     18 H2          0.2507    3.4069   -2.9034 H         1 <0>         0.0593
     19 H3         -0.7441    3.7611   -1.4705 H         1 <0>         0.0696
     20 H4          0.3786    4.9903   -2.1005 H         1 <0>         0.0745
     21 H5          2.2997    3.5369   -1.5129 H         1 <0>         0.0998
     22 H6          2.0826    3.7093    0.9512 H         1 <0>         0.0595
     23 H7          1.4483    5.1669    0.1504 H         1 <0>         0.0745
     24 H8          0.3256    3.9377    0.7804 H         1 <0>         0.0697
     25 H9          2.1071   -2.4976   -0.9480 H         1 <0>         0.4293
     26 H10        -1.5195   -4.7648   -0.6201 H         1 <0>         0.0965
     27 H11         0.6901   -4.8908   -2.7221 H         1 <0>         0.0631
     28 H12        -1.0524   -5.0737   -3.0357 H         1 <0>         0.0742
     29 H13        -0.4111   -3.5182   -2.4548 H         1 <0>         0.0543
     30 H14         0.6525   -6.8551   -1.0868 H         1 <0>         0.0614
     31 H15        -0.6337   -6.9083    0.1425 H         1 <0>         0.0707
     32 H16        -1.0462   -7.0442   -1.5836 H         1 <0>         0.0694
@<TRIPOS>BOND
     1    1    2 1
     2    1   18 1
     3    1   19 1
     4    1   20 1
     5    2    3 1
     6    2    4 1
     7    2   21 1
     8    3   22 1
     9    3   23 1
    10    3   24 1
    11    4    8 1
    12    4    5 2
    13    5    6 1
    14    6    7 2
    15    7    8 1
    16    7    9 1
    17    9   10 am
    18    9   25 1
    19   10   11 2
    20   10   12 1
    21   12   13 1
    22   12   14 1
    23   12   17 1
    24   14   15 1
    25   14   16 1
    26   14   26 1
    27   15   27 1
    28   15   28 1
    29   15   29 1
    30   16   30 1
    31   16   31 1
    32   16   32 1
@<TRIPOS>MOLECULE
ZINC19782614
   43    44     0     0     0
SMALL
USER_CHARGES
2-[(2R)-1-(2,4-dimethylphenyl)sulfonyl-2-piperidyl]ethanol
@<TRIPOS>ATOM
      1 C1         -2.1652    6.8233    0.5667 C.3       1 <0>        -0.1278
      2 C2         -0.9755    5.9149    0.7418 C.ar      1 <0>        -0.0232
      3 C3         -0.6794    5.3962    1.9887 C.ar      1 <0>        -0.1483
      4 C4          0.4112    4.5625    2.1491 C.ar      1 <0>        -0.0105
      5 C5          1.2062    4.2475    1.0628 C.ar      1 <0>        -0.6888
      6 C6          0.9135    4.7706   -0.1826 C.ar      1 <0>         0.0284
      7 C7         -0.1807    5.6001   -0.3442 C.ar      1 <0>        -0.1477
      8 C8          1.7838    4.4322   -1.3655 C.3       1 <0>        -0.1873
      9 S1          2.5969    3.1850    1.2674 S.o2      1 <0>         2.6925
     10 O1          2.6561    2.8549    2.6482 O.2       1 <0>        -0.9527
     11 O2          3.6809    3.7986    0.5836 O.2       1 <0>        -0.9570
     12 N1          2.2621    1.7792    0.4586 N.pl3     1 <0>        -0.9937
     13 C9          2.8874    1.4958   -0.8404 C.3       1 <0>         0.1077
     14 C10         1.7877    1.1740   -1.8572 C.3       1 <0>        -0.1458
     15 C11         0.9165    0.0373   -1.3178 C.3       1 <0>        -0.1180
     16 C12         0.2523    0.4775   -0.0111 C.3       1 <0>        -0.1340
     17 C13         1.3346    0.7914    1.0266 C.3       1 <0>         0.1650
     18 H1          1.9148   -0.1097    1.2743 H         1 <0>         0.0868
     19 C14         0.6877    1.3625    2.2901 C.3       1 <0>        -0.1998
     20 C15        -0.3163    0.3529    2.8500 C.3       1 <0>         0.0992
     21 O3         -0.8262    0.8296    4.0969 O.3       1 <0>        -0.6001
     22 H2         -2.6707    6.9562    1.5346 H         1 <0>         0.0719
     23 H3         -2.8653    6.3758   -0.1542 H         1 <0>         0.0776
     24 H4         -1.8280    7.8009    0.1919 H         1 <0>         0.0783
     25 H5         -1.3005    5.6423    2.8373 H         1 <0>         0.1324
     26 H6          0.6425    4.1573    3.1231 H         1 <0>         0.1446
     27 H7         -0.4122    6.0050   -1.3183 H         1 <0>         0.1306
     28 H8          1.3962    4.9375   -2.2624 H         1 <0>         0.0817
     29 H9          1.7773    3.3440   -1.5261 H         1 <0>         0.0959
     30 H10         2.8131    4.7681   -1.1714 H         1 <0>         0.1076
     31 H11         3.4569    2.3762   -1.1730 H         1 <0>         0.1016
     32 H12         3.5664    0.6361   -0.7408 H         1 <0>         0.0797
     33 H13         1.1672    2.0673   -2.0212 H         1 <0>         0.0763
     34 H14         2.2465    0.8665   -2.8085 H         1 <0>         0.0810
     35 H15         0.1409   -0.2125   -2.0567 H         1 <0>         0.0676
     36 H16         1.5428   -0.8474   -1.1303 H         1 <0>         0.0677
     37 H17        -0.3549    1.3765   -0.1932 H         1 <0>         0.0697
     38 H18        -0.3928   -0.3312    0.3629 H         1 <0>         0.0774
     39 H19         1.4653    1.5619    3.0421 H         1 <0>         0.1373
     40 H20         0.1669    2.2996    2.0439 H         1 <0>         0.0782
     41 H21        -1.1458    0.2276    2.1385 H         1 <0>         0.0425
     42 H22         0.1838   -0.6146    3.0042 H         1 <0>         0.0450
     43 H23        -1.5653    0.2340    4.6527 H         1 <0>         0.4104
@<TRIPOS>BOND
     1    1    2 1
     2    1   22 1
     3    1   23 1
     4    1   24 1
     5    2    7 ar
     6    2    3 ar
     7    3    4 ar
     8    3   25 1
     9    4    5 ar
    10    4   26 1
    11    5    6 ar
    12    5    9 1
    13    6    7 ar
    14    6    8 1
    15    7   27 1
    16    8   28 1
    17    8   29 1
    18    8   30 1
    19    9   10 2
    20    9   11 2
    21    9   12 1
    22   12   17 1
    23   12   13 1
    24   13   14 1
    25   13   31 1
    26   13   32 1
    27   14   15 1
    28   14   33 1
    29   14   34 1
    30   15   16 1
    31   15   35 1
    32   15   36 1
    33   16   17 1
    34   16   37 1
    35   16   38 1
    36   17   18 1
    37   17   19 1
    38   19   20 1
    39   19   39 1
    40   19   40 1
    41   20   21 1
    42   20   41 1
    43   20   42 1
    44   21   43 1
@<TRIPOS>MOLECULE
ZINC38010136
   38    40     0     0     0
SMALL
USER_CHARGES

@<TRIPOS>ATOM
      1 C1         -0.0225    1.8097    0.0120 C.3       1 <0>        -0.6579
      2 S1          0.0021   -0.0041    0.0020 S.o2      1 <0>         2.4965
      3 O1          0.8352   -0.4880    1.0465 O.2       1 <0>        -0.9375
      4 O2         -1.3147   -0.5105   -0.1678 O.2       1 <0>        -0.9402
      5 C2          0.8454   -0.4373   -1.4831 C.ar      1 <0>        -0.7299
      6 C3          2.0600   -1.0923   -1.4227 C.ar      1 <0>         0.0218
      7 C4          2.7227   -1.4322   -2.5876 C.ar      1 <0>        -0.1931
      8 C5          2.1721   -1.1183   -3.8169 C.ar      1 <0>        -0.0185
      9 C6          0.9580   -0.4640   -3.8846 C.ar      1 <0>        -0.2127
     10 C7          0.2869   -0.1257   -2.7160 C.ar      1 <0>         0.3031
     11 N1         -0.9438    0.5315   -2.7809 N.pl3     1 <0>        -0.7442
     12 C8         -1.5314    0.8595   -4.0822 C.3       1 <0>         0.1257
     13 C9         -2.8696    1.5709   -3.8728 C.3       1 <0>         0.0650
     14 H1         -3.5267    0.9756   -3.2388 H         1 <0>         0.1006
     15 C10        -3.5464    1.8760   -5.2301 C.3       1 <0>        -0.0998
     16 C11        -4.1932    3.2212   -4.9625 C.ar      1 <0>        -0.1737
     17 C12        -5.1640    3.9306   -5.6345 C.ar      1 <0>        -0.0688
     18 C13        -5.5808    5.1587   -5.1528 C.ar      1 <0>        -0.1453
     19 C14        -5.0195    5.6692   -3.9967 C.ar      1 <0>        -0.0838
     20 C15        -4.0447    4.9622   -3.3241 C.ar      1 <0>        -0.1361
     21 C16        -3.6170    3.7266   -3.8043 C.ar      1 <0>         0.1024
     22 O3         -2.6686    2.8793   -3.3117 O.3       1 <0>        -0.3006
     23 H2          1.0001    2.1870    0.0043 H         1 <0>         0.1361
     24 H3         -0.5497    2.1708   -0.8711 H         1 <0>         0.1283
     25 H4         -0.5327    2.1613    0.9088 H         1 <0>         0.1355
     26 H5          2.4927   -1.3389   -0.4643 H         1 <0>         0.1450
     27 H6          3.6726   -1.9437   -2.5374 H         1 <0>         0.1307
     28 H7          2.6925   -1.3849   -4.7249 H         1 <0>         0.1307
     29 H8          0.5288   -0.2188   -4.8448 H         1 <0>         0.1304
     30 H9         -1.4095    0.7708   -1.9643 H         1 <0>         0.4025
     31 H10        -0.8545    1.5132   -4.6322 H         1 <0>         0.0822
     32 H11        -1.6921   -0.0572   -4.6497 H         1 <0>         0.0923
     33 H12        -2.8060    1.9513   -6.0264 H         1 <0>         0.0963
     34 H13        -4.2977    1.1232   -5.4687 H         1 <0>         0.0987
     35 H14        -5.5994    3.5283   -6.5372 H         1 <0>         0.1266
     36 H15        -6.3416    5.7170   -5.6781 H         1 <0>         0.1301
     37 H16        -5.3459    6.6267   -3.6185 H         1 <0>         0.1331
     38 H17        -3.6112    5.3682   -2.4221 H         1 <0>         0.1287
@<TRIPOS>BOND
     1    1    2 1
     2    1   23 1
     3    1   24 1
     4    1   25 1
     5    2    3 2
     6    2    4 2
     7    2    5 1
     8    5   10 ar
     9    5    6 ar
    10    6    7 ar
    11    6   26 1
    12    7    8 ar
    13    7   27 1
    14    8    9 ar
    15    8   28 1
    16    9   10 ar
    17    9   29 1
    18   10   11 1
    19   11   12 1
    20   11   30 1
    21   12   13 1
    22   12   31 1
    23   12   32 1
    24   13   14 1
    25   13   22 1
    26   13   15 1
    27   15   16 1
    28   15   33 1
    29   15   34 1
    30   16   21 ar
    31   16   17 ar
    32   17   18 ar
    33   17   35 1
    34   18   19 ar
    35   18   36 1
    36   19   20 ar
    37   19   37 1
    38   20   21 ar
    39   20   38 1
    40   21   22 1
@<TRIPOS>MOLECULE
ZINC49509458
   42    43     0     0     0
SMALL
USER_CHARGES

@<TRIPOS>ATOM
      1 C1         -0.6617    1.2515    1.4864 C.3       1 <0>        -0.0735
      2 C2         -0.7225   -0.2536    1.5319 C.2       1 <0>        -0.1348
      3 C3         -1.7881   -1.0708    1.3472 C.2       1 <0>        -0.1594
      4 C4         -1.6073   -2.4383    1.4356 C.2       1 <0>        -0.1320
      5 C5         -0.3698   -2.9218    1.7042 C.2       1 <0>        -0.1363
      6 S1          0.5917   -1.4232    1.8350 S.3       1 <0>         0.0455
      7 C6          0.0791   -4.3530    1.8492 C.3       1 <0>        -0.0756
      8 C7         -2.7687   -3.3777    1.2367 C.3       1 <0>         0.2061
      9 H1         -2.4222   -4.2838    0.7396 H         1 <0>         0.0906
     10 C8         -3.3702   -3.7400    2.5961 C.3       1 <0>        -0.1649
     11 N1         -3.7876   -2.7263    0.4098 N.pl3     1 <0>        -0.7261
     12 C9         -4.6743   -3.4963   -0.3373 C.ar      1 <0>         0.2523
     13 C10        -4.6121   -4.8888   -0.3072 C.ar      1 <0>        -0.2333
     14 C11        -5.5089   -5.6218   -1.0616 C.ar      1 <0>         0.1348
     15 N2         -6.4168   -5.0245   -1.8047 N.ar      1 <0>        -0.4962
     16 C12        -6.5132   -3.7011   -1.8643 C.ar      1 <0>         0.1194
     17 C13        -5.6508   -2.8945   -1.1303 C.ar      1 <0>        -0.1849
     18 C14        -7.5533   -3.0786   -2.7166 C.2       1 <0>         0.5677
     19 O1         -7.7364   -1.8781   -2.6728 O.2       1 <0>        -0.5369
     20 N3         -8.2963   -3.8439   -3.5405 N.am      1 <0>        -0.6017
     21 C15        -9.2925   -3.2231   -4.4171 C.3       1 <0>         0.0764
     22 C16        -8.1076   -5.2965   -3.5596 C.3       1 <0>         0.0754
     23 H2          0.3604    1.5797    1.6754 H         1 <0>         0.0740
     24 H3         -0.9787    1.5984    0.5029 H         1 <0>         0.0822
     25 H4         -1.3228    1.6650    2.2480 H         1 <0>         0.0824
     26 H5         -2.7638   -0.6595    1.1346 H         1 <0>         0.1288
     27 H6          0.3910   -4.7362    0.8776 H         1 <0>         0.0813
     28 H7          0.9166   -4.4024    2.5451 H         1 <0>         0.0774
     29 H8         -0.7456   -4.9557    2.2298 H         1 <0>         0.0820
     30 H9         -4.2103   -4.4194    2.4522 H         1 <0>         0.0649
     31 H10        -2.6122   -4.2246    3.2113 H         1 <0>         0.0693
     32 H11        -3.7168   -2.8339    3.0931 H         1 <0>         0.0620
     33 H12        -3.8444   -1.7583    0.3830 H         1 <0>         0.4039
     34 H13        -3.8712   -5.3892    0.2986 H         1 <0>         0.1365
     35 H14        -5.4640   -6.7006   -1.0414 H         1 <0>         0.1622
     36 H15        -5.7333   -1.8186   -1.1767 H         1 <0>         0.1429
     37 H16        -9.2890   -2.1439   -4.2640 H         1 <0>         0.0867
     38 H17        -9.0496   -3.4434   -5.4565 H         1 <0>         0.0628
     39 H18       -10.2803   -3.6200   -4.1828 H         1 <0>         0.0625
     40 H19        -8.6885   -5.7489   -2.7558 H         1 <0>         0.0569
     41 H20        -8.4422   -5.6939   -4.5178 H         1 <0>         0.0571
     42 H21        -7.0516   -5.5276   -3.4192 H         1 <0>         0.1117
@<TRIPOS>BOND
     1    1    2 1
     2    1   23 1
     3    1   24 1
     4    1   25 1
     5    2    6 1
     6    2    3 2
     7    3    4 1
     8    3   26 1
     9    4    5 2
    10    4    8 1
    11    5    6 1
    12    5    7 1
    13    7   27 1
    14    7   28 1
    15    7   29 1
    16    8    9 1
    17    8   10 1
    18    8   11 1
    19   10   30 1
    20   10   31 1
    21   10   32 1
    22   11   12 1
    23   11   33 1
    24   12   17 ar
    25   12   13 ar
    26   13   14 ar
    27   13   34 1
    28   14   15 ar
    29   14   35 1
    30   15   16 ar
    31   16   17 ar
    32   16   18 1
    33   17   36 1
    34   18   19 2
    35   18   20 am
    36   20   21 1
    37   20   22 1
    38   21   37 1
    39   21   38 1
    40   21   39 1
    41   22   40 1
    42   22   41 1
    43   22   42 1
@<TRIPOS>MOLECULE
ZINC62577158
   43    44     0     0     0
SMALL
USER_CHARGES

@<TRIPOS>ATOM
      1 C1          0.6891    1.3978    0.8985 C.3       1 <0>        -0.1255
      2 C2          0.4774   -0.0607    0.5839 C.ar      1 <0>        -0.0245
      3 C3         -0.5566   -0.7545    1.1848 C.ar      1 <0>        -0.1487
      4 C4         -0.7508   -2.0922    0.8963 C.ar      1 <0>        -0.0129
      5 C5          0.0888   -2.7364    0.0065 C.ar      1 <0>        -0.6863
      6 C6          1.1219   -2.0426   -0.5948 C.ar      1 <0>         0.0248
      7 C7          1.3134   -0.7034   -0.3095 C.ar      1 <0>        -0.1459
      8 C8          2.0372   -2.7449   -1.5643 C.3       1 <0>        -0.1470
      9 S1         -0.1580   -4.4420   -0.3604 S.o2      1 <0>         2.6944
     10 O1         -1.2587   -4.8720    0.4288 O.2       1 <0>        -0.9590
     11 O2         -0.1441   -4.5590   -1.7765 O.2       1 <0>        -0.9576
     12 N1          1.1706   -5.2596    0.1951 N.pl3     1 <0>        -1.1124
     13 C9          1.4653   -5.2896    1.6299 C.3       1 <0>         0.1957
     14 C10         2.4767   -6.3705    1.9125 C.2       1 <0>        -0.1782
     15 C11         2.2024   -7.6599    2.4096 C.2       1 <0>        -0.1779
     16 C12         3.3791   -8.3098    2.5172 C.2       1 <0>         0.0120
     17 N2          4.3698   -7.4688    2.1047 N.pl3     1 <0>        -0.4432
     18 C13         3.8100   -6.2832    1.7305 C.2       1 <0>         0.0339
     19 C14         4.5534   -5.0816    1.2064 C.3       1 <0>        -0.0892
     20 C15         5.7990   -7.7881    2.0651 C.3       1 <0>         0.0690
     21 C16         3.5667   -9.7218    3.0090 C.3       1 <0>        -0.0841
     22 H1          0.1129    2.0070    0.2021 H         1 <0>         0.0797
     23 H2          0.3599    1.6012    1.9175 H         1 <0>         0.0733
     24 H3          1.7475    1.6401    0.8034 H         1 <0>         0.0723
     25 H4         -1.2124   -0.2513    1.8798 H         1 <0>         0.1326
     26 H5         -1.5580   -2.6343    1.3662 H         1 <0>         0.1441
     27 H6          2.1184   -0.1604   -0.7823 H         1 <0>         0.1313
     28 H7          1.5861   -2.7428   -2.5566 H         1 <0>         0.0982
     29 H8          2.9955   -2.2267   -1.5997 H         1 <0>         0.0821
     30 H9          2.1921   -3.7733   -1.2379 H         1 <0>         0.0696
     31 H10         1.7538   -5.7185   -0.4295 H         1 <0>         0.4185
     32 H11         1.8685   -4.3251    1.9383 H         1 <0>         0.0670
     33 H12         0.5497   -5.4948    2.1846 H         1 <0>         0.0852
     34 H13         1.2287   -8.0551    2.6590 H         1 <0>         0.1384
     35 H14         4.8406   -4.4402    2.0396 H         1 <0>         0.0719
     36 H15         5.4471   -5.4102    0.6760 H         1 <0>         0.0641
     37 H16         3.9101   -4.5253    0.5246 H         1 <0>         0.0811
     38 H17         6.0491   -8.2152    1.0939 H         1 <0>         0.0733
     39 H18         6.3790   -6.8787    2.2222 H         1 <0>         0.0831
     40 H19         6.0324   -8.5079    2.8496 H         1 <0>         0.0844
     41 H20         3.5077  -10.4109    2.1665 H         1 <0>         0.0705
     42 H21         4.5425   -9.8138    3.4860 H         1 <0>         0.0613
     43 H22         2.7856   -9.9622    3.7303 H         1 <0>         0.0806
@<TRIPOS>BOND
     1    1    2 1
     2    1   22 1
     3    1   23 1
     4    1   24 1
     5    2    7 ar
     6    2    3 ar
     7    3    4 ar
     8    3   25 1
     9    4    5 ar
    10    4   26 1
    11    5    6 ar
    12    5    9 1
    13    6    7 ar
    14    6    8 1
    15    7   27 1
    16    8   28 1
    17    8   29 1
    18    8   30 1
    19    9   10 2
    20    9   11 2
    21    9   12 1
    22   12   13 1
    23   12   31 1
    24   13   14 1
    25   13   32 1
    26   13   33 1
    27   14   18 2
    28   14   15 1
    29   15   16 2
    30   15   34 1
    31   16   17 1
    32   16   21 1
    33   17   18 1
    34   17   20 1
    35   18   19 1
    36   19   35 1
    37   19   36 1
    38   19   37 1
    39   20   38 1
    40   20   39 1
    41   20   40 1
    42   21   41 1
    43   21   42 1
    44   21   43 1
@<TRIPOS>MOLECULE
ZINC02246344
   31    32     0     0     0
SMALL
USER_CHARGES
N-[(4-bromophenyl)methyleneamino]-2-pyrimidin-2-ylsulfanyl-acetamide
@<TRIPOS>ATOM
      1 C1         -0.0167    1.3820    0.0096 C.ar      1 <0>        -0.2358
      2 C2          1.1916    2.0614    0.0018 C.ar      1 <0>         0.1634
      3 N1          2.3198    1.3714   -0.0127 N.ar      1 <0>        -0.5331
      4 C3          2.3032    0.0460   -0.0197 C.ar      1 <0>         0.2762
      5 N2          1.1651   -0.6336   -0.0125 N.ar      1 <0>        -0.5004
      6 C4          0.0021   -0.0041    0.0020 C.ar      1 <0>         0.1667
      7 S1          3.8300   -0.8333   -0.0396 S.3       1 <0>         0.1029
      8 C5          4.9920    0.5545   -0.0430 C.3       1 <0>        -0.1521
      9 C6          6.4038    0.0277   -0.0598 C.2       1 <0>         0.5502
     10 O1          6.6046   -1.1686   -0.0685 O.2       1 <0>        -0.4820
     11 N3          7.4432    0.8856   -0.0650 N.am      1 <0>        -0.5783
     12 N4          8.7557    0.3958   -0.0806 N.2       1 <0>        -0.2216
     13 C7          9.7564    1.2218   -0.0856 C.2       1 <0>         0.1111
     14 C8         11.1380    0.7062   -0.1020 C.ar      1 <0>        -0.0428
     15 C9         11.3729   -0.6709   -0.1063 C.ar      1 <0>        -0.0724
     16 C10        12.6673   -1.1464   -0.1265 C.ar      1 <0>        -0.0945
     17 C11        13.7329   -0.2622   -0.1319 C.ar      1 <0>        -0.0760
     18 C12        13.5071    1.1039   -0.1224 C.ar      1 <0>        -0.0952
     19 C13        12.2176    1.5927   -0.1075 C.ar      1 <0>        -0.0830
     20 Br1        15.5044   -0.9234   -0.1516 Br        1 <0>        -0.0441
     21 H1         -0.9526    1.9210    0.0170 H         1 <0>         0.1520
     22 H2          1.2114    3.1412    0.0070 H         1 <0>         0.1730
     23 H3         -0.9219   -0.5632    0.0075 H         1 <0>         0.1757
     24 H4          4.8226    1.1680   -0.9279 H         1 <0>         0.1301
     25 H5          4.8399    1.1579    0.8520 H         1 <0>         0.1301
     26 H6          7.2825    1.8422   -0.0580 H         1 <0>         0.3912
     27 H7          9.5776    2.2868   -0.0778 H         1 <0>         0.1268
     28 H8         10.5427   -1.3616   -0.0976 H         1 <0>         0.1451
     29 H9         12.8502   -2.2107   -0.1340 H         1 <0>         0.1386
     30 H10        14.3427    1.7881   -0.1263 H         1 <0>         0.1391
     31 H11        12.0429    2.6584   -0.0997 H         1 <0>         0.1392
@<TRIPOS>BOND
     1    1    6 ar
     2    1    2 ar
     3    1   21 1
     4    2    3 ar
     5    2   22 1
     6    3    4 ar
     7    4    5 ar
     8    4    7 1
     9    5    6 ar
    10    6   23 1
    11    7    8 1
    12    8    9 1
    13    8   24 1
    14    8   25 1
    15    9   10 2
    16    9   11 am
    17   11   12 1
    18   11   26 1
    19   12   13 2
    20   13   14 1
    21   13   27 1
    22   14   19 ar
    23   14   15 ar
    24   15   16 ar
    25   15   28 1
    26   16   17 ar
    27   16   29 1
    28   17   18 ar
    29   17   20 1
    30   18   19 ar
    31   18   30 1
    32   19   31 1
@<TRIPOS>MOLECULE
ZINC12602273
   49    51     0     0     0
SMALL
USER_CHARGES
N-[(2,4-dimethylphenyl)methyl]-N-methyl-3-(4-oxo-3H-quinazolin-2-yl)propanamide
@<TRIPOS>ATOM
      1 C1          7.1166   -3.0012   -1.5411 C.3       1 <0>        -0.1160
      2 C2          5.6580   -2.7745   -1.8444 C.ar      1 <0>        -0.0841
      3 C3          4.7665   -2.5378   -0.8145 C.ar      1 <0>        -0.1252
      4 C4          3.4286   -2.3303   -1.0925 C.ar      1 <0>        -0.1019
      5 C5          2.9818   -2.3595   -2.4006 C.ar      1 <0>        -0.1074
      6 C6          3.8721   -2.6013   -3.4297 C.ar      1 <0>        -0.0757
      7 C7          5.2113   -2.8036   -3.1520 C.ar      1 <0>        -0.1184
      8 C8          3.3840   -2.6393   -4.8550 C.3       1 <0>        -0.1184
      9 C9          1.5230   -2.1337   -2.7037 C.3       1 <0>         0.1559
     10 N1          0.8141   -1.7945   -1.4673 N.am      1 <0>        -0.6153
     11 C10         0.3057   -2.8592   -0.5988 C.3       1 <0>         0.0725
     12 C11         0.6296   -0.5030   -1.1289 C.2       1 <0>         0.5126
     13 O1          1.0504    0.3783   -1.8480 O.2       1 <0>        -0.5360
     14 C12        -0.0996   -0.1541    0.1429 C.3       1 <0>        -0.1193
     15 C13        -0.1714    1.3672    0.2887 C.3       1 <0>        -0.0645
     16 C14        -0.9007    1.7161    1.5605 C.2       1 <0>         0.4007
     17 N2         -1.0674    3.0288    1.8684 N.am      1 <0>        -0.6519
     18 H1         -0.7190    3.7102    1.2724 H         1 <0>         0.4209
     19 C15        -1.7157    3.3944    2.9988 C.2       1 <0>         0.5511
     20 O2         -1.8726    4.5667    3.2868 O.2       1 <0>        -0.5081
     21 C16        -2.2235    2.3204    3.8654 C.ar      1 <0>        -0.2014
     22 C17        -2.9048    2.5896    5.0507 C.ar      1 <0>        -0.0398
     23 C18        -3.3595    1.5446    5.8246 C.ar      1 <0>        -0.1387
     24 C19        -3.1447    0.2296    5.4325 C.ar      1 <0>        -0.0711
     25 C20        -2.4740   -0.0577    4.2651 C.ar      1 <0>        -0.1114
     26 C21        -2.0029    0.9844    3.4638 C.ar      1 <0>         0.1555
     27 N3         -1.3419    0.7468    2.3032 N.2       1 <0>        -0.5197
     28 H2          7.2945   -4.0654   -1.3865 H         1 <0>         0.0705
     29 H3          7.7206   -2.6497   -2.3777 H         1 <0>         0.0662
     30 H4          7.3900   -2.4524   -0.6399 H         1 <0>         0.0659
     31 H5          5.1154   -2.5153    0.2074 H         1 <0>         0.1196
     32 H6          2.7321   -2.1458   -0.2880 H         1 <0>         0.1193
     33 H7          5.9077   -2.9889   -3.9565 H         1 <0>         0.1220
     34 H8          3.3524   -1.6259   -5.2553 H         1 <0>         0.0734
     35 H9          4.0621   -3.2460   -5.4552 H         1 <0>         0.0674
     36 H10         2.3847   -3.0733   -4.8854 H         1 <0>         0.0670
     37 H11         1.0958   -3.0413   -3.1302 H         1 <0>         0.0895
     38 H12         1.4224   -1.3152   -3.4164 H         1 <0>         0.0994
     39 H13        -0.7418   -3.0495   -0.8323 H         1 <0>         0.0624
     40 H14         0.8851   -3.7681   -0.7610 H         1 <0>         0.0760
     41 H15         0.3957   -2.5520    0.4432 H         1 <0>         0.0761
     42 H16         0.4336   -0.5760    0.9949 H         1 <0>         0.1067
     43 H17        -1.1091   -0.5637    0.1070 H         1 <0>         0.1079
     44 H18         0.8380    1.7768    0.3246 H         1 <0>         0.1085
     45 H19        -0.7046    1.7891   -0.5633 H         1 <0>         0.1089
     46 H20        -3.0747    3.6101    5.3606 H         1 <0>         0.1381
     47 H21        -3.8879    1.7495    6.7439 H         1 <0>         0.1345
     48 H22        -3.5080   -0.5775    6.0513 H         1 <0>         0.1355
     49 H23        -2.3132   -1.0841    3.9703 H         1 <0>         0.1404
@<TRIPOS>BOND
     1    1    2 1
     2    1   28 1
     3    1   29 1
     4    1   30 1
     5    2    7 ar
     6    2    3 ar
     7    3    4 ar
     8    3   31 1
     9    4    5 ar
    10    4   32 1
    11    5    6 ar
    12    5    9 1
    13    6    7 ar
    14    6    8 1
    15    7   33 1
    16    8   34 1
    17    8   35 1
    18    8   36 1
    19    9   10 1
    20    9   37 1
    21    9   38 1
    22   10   11 1
    23   10   12 am
    24   11   39 1
    25   11   40 1
    26   11   41 1
    27   12   13 2
    28   12   14 1
    29   14   15 1
    30   14   42 1
    31   14   43 1
    32   15   16 1
    33   15   44 1
    34   15   45 1
    35   16   27 2
    36   16   17 1
    37   17   18 1
    38   17   19 am
    39   19   20 2
    40   19   21 1
    41   21   26 ar
    42   21   22 ar
    43   22   23 ar
    44   22   46 1
    45   23   24 ar
    46   23   47 1
    47   24   25 ar
    48   24   48 1
    49   25   26 ar
    50   25   49 1
    51   26   27 1
@<TRIPOS>MOLECULE
ZINC11458564
   45    47     0     0     0
SMALL
USER_CHARGES

@<TRIPOS>ATOM
      1 C1          0.0230    1.5118   -0.0009 C.3       1 <0>        -0.1208
      2 C2         -0.0038    0.0050   -0.0056 C.ar      1 <0>        -0.0546
      3 C3          1.1841   -0.7045   -0.0386 C.ar      1 <0>        -0.1277
      4 C4          1.1679   -2.0832   -0.0435 C.ar      1 <0>        -0.0379
      5 C5         -0.0531   -2.7646   -0.0147 C.ar      1 <0>        -0.1658
      6 C6         -1.2490   -2.0404    0.0191 C.ar      1 <0>        -0.0394
      7 C7         -1.2160   -0.6620    0.0289 C.ar      1 <0>        -0.1276
      8 C8         -2.5702   -2.7647    0.0499 C.3       1 <0>        -0.1283
      9 C9         -0.0793   -4.2360   -0.0202 C.2       1 <0>         0.4161
     10 O1         -0.0280   -4.8393   -1.0707 O.2       1 <0>        -0.4145
     11 C10        -0.1699   -4.9930    1.2798 C.3       1 <0>         0.0107
     12 O2         -0.2973   -6.3904    1.0094 O.3       1 <0>        -0.3224
     13 C11        -0.3905   -7.2126    2.0718 C.2       1 <0>         0.5115
     14 O3         -0.3644   -6.7564    3.1966 O.2       1 <0>        -0.4786
     15 C12        -0.5250   -8.6746    1.8680 C.2       1 <0>        -0.0305
     16 C13        -0.7422   -9.5100    2.9264 C.2       1 <0>        -0.1123
     17 C14        -0.8704  -10.9471    2.6932 C.2       1 <0>         0.5356
     18 O4         -1.0641  -11.6931    3.6365 O.2       1 <0>        -0.5149
     19 N1         -0.7782  -11.4580    1.4531 N.am      1 <0>        -0.6251
     20 H1         -0.8673  -12.4155    1.3258 H         1 <0>         0.4208
     21 C15        -0.5600  -10.6488    0.3587 C.ar      1 <0>         0.1828
     22 C16        -0.4336   -9.2575    0.5204 C.ar      1 <0>        -0.1184
     23 C17        -0.2180   -8.4440   -0.5956 C.ar      1 <0>        -0.0587
     24 C18        -0.1360   -9.0039   -1.8391 C.ar      1 <0>        -0.1428
     25 C19        -0.2656  -10.3759   -2.0046 C.ar      1 <0>        -0.0601
     26 C20        -0.4682  -11.1981   -0.9175 C.ar      1 <0>        -0.1635
     27 C21         2.4624   -2.8539   -0.0805 C.3       1 <0>        -0.1289
     28 H2          0.0607    1.8713    1.0274 H         1 <0>         0.0762
     29 H3          0.9033    1.8612   -0.5404 H         1 <0>         0.0705
     30 H4         -0.8755    1.8927   -0.4862 H         1 <0>         0.0704
     31 H5          2.1262   -0.1768   -0.0609 H         1 <0>         0.1305
     32 H6         -2.1386   -0.1013    0.0593 H         1 <0>         0.1306
     33 H7         -2.9046   -2.8669    1.0823 H         1 <0>         0.0801
     34 H8         -3.3087   -2.1977   -0.5168 H         1 <0>         0.0794
     35 H9         -2.4529   -3.7535   -0.3936 H         1 <0>         0.0655
     36 H10         0.7319   -4.8171    1.8662 H         1 <0>         0.1120
     37 H11        -1.0401   -4.6504    1.8398 H         1 <0>         0.1105
     38 H12        -0.8182   -9.1120    3.9275 H         1 <0>         0.1736
     39 H13        -0.1168   -7.3755   -0.4752 H         1 <0>         0.1646
     40 H14         0.0306   -8.3738   -2.7003 H         1 <0>         0.1337
     41 H15        -0.1989  -10.8040   -2.9939 H         1 <0>         0.1349
     42 H16        -0.5674  -12.2645   -1.0564 H         1 <0>         0.1372
     43 H17         2.8462   -2.9684    0.9333 H         1 <0>         0.0795
     44 H18         2.2873   -3.8376   -0.5160 H         1 <0>         0.0670
     45 H19         3.1901   -2.3130   -0.6855 H         1 <0>         0.0790
@<TRIPOS>BOND
     1    1    2 1
     2    1   28 1
     3    1   29 1
     4    1   30 1
     5    2    7 ar
     6    2    3 ar
     7    3    4 ar
     8    3   31 1
     9    4    5 ar
    10    4   27 1
    11    5    6 ar
    12    5    9 1
    13    6    7 ar
    14    6    8 1
    15    7   32 1
    16    8   33 1
    17    8   34 1
    18    8   35 1
    19    9   10 2
    20    9   11 1
    21   11   12 1
    22   11   36 1
    23   11   37 1
    24   12   13 1
    25   13   14 2
    26   13   15 1
    27   15   22 1
    28   15   16 2
    29   16   17 1
    30   16   38 1
    31   17   18 2
    32   17   19 am
    33   19   20 1
    34   19   21 1
    35   21   26 ar
    36   21   22 ar
    37   22   23 ar
    38   23   24 ar
    39   23   39 1
    40   24   25 ar
    41   24   40 1
    42   25   26 ar
    43   25   41 1
    44   26   42 1
    45   27   43 1
    46   27   44 1
    47   27   45 1
@<TRIPOS>MOLECULE
ZINC48365509
   44    46     0     0     0
SMALL
USER_CHARGES

@<TRIPOS>ATOM
      1 C1         -0.0184    1.5028    0.0103 C.3       1 <0>        -0.0768
      2 C2          0.0021   -0.0041    0.0020 C.2       1 <0>         0.1083
      3 C3          0.0080   -0.8179   -1.1355 C.2       1 <0>        -0.2113
      4 C4          0.0279   -2.1072   -0.7249 C.2       1 <0>         0.1194
      5 N1          0.0343   -2.1090    0.6245 N.pl3     1 <0>        -0.4379
      6 N2          0.0231   -0.7768    1.0576 N.2       1 <0>        -0.2742
      7 C5          0.0548   -3.2948    1.4847 C.3       1 <0>         0.5145
      8 F1         -0.6030   -3.0107    2.6862 F         1 <0>        -0.1713
      9 F2         -0.5931   -4.3520    0.8369 F         1 <0>        -0.1792
     10 C6          0.0401   -3.3230   -1.6152 C.3       1 <0>        -0.1127
     11 C7         -0.0061   -0.3430   -2.5656 C.3       1 <0>        -0.0600
     12 C8          1.4098   -0.1648   -3.0497 C.2       1 <0>         0.5175
     13 O1          2.3390   -0.4003   -2.3066 O.2       1 <0>        -0.5249
     14 N3          1.6437    0.2563   -4.3085 N.am      1 <0>        -0.7314
     15 C9          3.0202    0.4295   -4.7791 C.3       1 <0>         0.2268
     16 H1          3.6564   -0.3331   -4.3300 H         1 <0>         0.1189
     17 C10         3.5257    1.8167   -4.3777 C.3       1 <0>        -0.1647
     18 C11         3.0586    0.2957   -6.2797 C.2       1 <0>         0.0215
     19 C12         4.0161   -0.3396   -6.9689 C.2       1 <0>        -0.1871
     20 C13         3.6487   -0.2200   -8.3850 C.ar      1 <0>        -0.1314
     21 C14         4.2188   -0.6558   -9.5802 C.ar      1 <0>        -0.0694
     22 C15         3.6054   -0.3687  -10.7680 C.ar      1 <0>        -0.1344
     23 C16         2.4208    0.3532  -10.7904 C.ar      1 <0>        -0.0907
     24 C17         1.8423    0.7924   -9.6188 C.ar      1 <0>        -0.1072
     25 C18         2.4491    0.5110   -8.4010 C.ar      1 <0>         0.0550
     26 O2          2.1341    0.7916   -7.1206 O.3       1 <0>        -0.1904
     27 H2          1.0042    1.8801    0.0026 H         1 <0>         0.0823
     28 H3         -0.5455    1.8639   -0.8728 H         1 <0>         0.0790
     29 H4         -0.5286    1.8543    0.9071 H         1 <0>         0.0777
     30 H5          1.0875   -3.5746    1.6932 H         1 <0>         0.1539
     31 H6          1.0706   -3.6020   -1.8350 H         1 <0>         0.0857
     32 H7         -0.4598   -4.1489   -1.1091 H         1 <0>         0.0890
     33 H8         -0.4816   -3.0976   -2.5453 H         1 <0>         0.0873
     34 H9         -0.5129   -1.0802   -3.1883 H         1 <0>         0.1019
     35 H10        -0.5336    0.6089   -2.6271 H         1 <0>         0.1060
     36 H11         0.9006    0.4446   -4.9028 H         1 <0>         0.4066
     37 H12         3.4979    1.9134   -3.2923 H         1 <0>         0.0755
     38 H13         4.5498    1.9456   -4.7278 H         1 <0>         0.0729
     39 H14         2.8894    2.5793   -4.8268 H         1 <0>         0.0646
     40 H15         4.8837   -0.8392   -6.5639 H         1 <0>         0.1607
     41 H16         5.1412   -1.2175   -9.5680 H         1 <0>         0.1287
     42 H17         4.0460   -0.7058  -11.6947 H         1 <0>         0.1311
     43 H18         1.9471    0.5736  -11.7357 H         1 <0>         0.1368
     44 H19         0.9202    1.3539   -9.6475 H         1 <0>         0.1333
@<TRIPOS>BOND
     1    1    2 1
     2    1   27 1
     3    1   28 1
     4    1   29 1
     5    2    6 2
     6    2    3 1
     7    3    4 2
     8    3   11 1
     9    4    5 1
    10    4   10 1
    11    5    6 1
    12    5    7 1
    13    7    8 1
    14    7    9 1
    15    7   30 1
    16   10   31 1
    17   10   32 1
    18   10   33 1
    19   11   12 1
    20   11   34 1
    21   11   35 1
    22   12   13 2
    23   12   14 am
    24   14   15 1
    25   14   36 1
    26   15   16 1
    27   15   17 1
    28   15   18 1
    29   17   37 1
    30   17   38 1
    31   17   39 1
    32   18   26 1
    33   18   19 2
    34   19   20 1
    35   19   40 1
    36   20   25 ar
    37   20   21 ar
    38   21   22 ar
    39   21   41 1
    40   22   23 ar
    41   22   42 1
    42   23   24 ar
    43   23   43 1
    44   24   25 ar
    45   24   44 1
    46   25   26 1
@<TRIPOS>MOLECULE
ZINC24085370
   42    45     0     0     0
SMALL
USER_CHARGES

@<TRIPOS>ATOM
      1 C1         -0.0167    1.3784    0.0096 C.ar      1 <0>        -0.1581
      2 C2          1.1698    2.0883    0.0021 C.ar      1 <0>        -0.0795
      3 C3          2.3773    1.4175   -0.0134 C.ar      1 <0>        -0.1505
      4 C4          2.3989    0.0304   -0.0210 C.ar      1 <0>         0.1270
      5 C5          1.2070   -0.6796   -0.0130 C.ar      1 <0>        -0.2117
      6 C6          0.0021   -0.0041    0.0020 C.ar      1 <0>        -0.0803
      7 O1          3.5855   -0.6319   -0.0368 O.3       1 <0>        -0.3009
      8 C7          3.5315   -2.0598   -0.0438 C.3       1 <0>         0.0278
      9 C8          4.9536   -2.6239   -0.0615 C.3       1 <0>         0.0830
     10 H1          5.4999   -2.2055   -0.9067 H         1 <0>         0.1190
     11 C9          4.8964   -4.1471   -0.1947 C.3       1 <0>         0.1157
     12 N1          6.2581   -4.6872   -0.2116 N.pl3     1 <0>        -0.9104
     13 C10         7.1107   -4.8091   -1.3213 C.ar      1 <0>         0.1375
     14 C11         6.8516   -4.4467   -2.6420 C.ar      1 <0>        -0.1163
     15 C12         7.8080   -4.6340   -3.6318 C.ar      1 <0>        -0.0863
     16 C13         9.0335   -5.1740   -3.3721 C.ar      1 <0>        -0.1145
     17 C14         9.3408   -5.5547   -2.0551 C.ar      1 <0>        -0.0252
     18 C15         8.3630   -5.3604   -1.0573 C.ar      1 <0>        -0.0778
     19 C16         8.6314   -5.7281    0.2658 C.ar      1 <0>        -0.6430
     20 C17         9.8186   -6.2670    0.5990 C.ar      1 <0>         0.0486
     21 C18        10.7966   -6.4628   -0.3843 C.ar      1 <0>        -0.1360
     22 C19        10.5727   -6.1196   -1.6851 C.ar      1 <0>        -0.0496
     23 S1          7.1298   -5.2833    1.0909 S.o2      1 <0>         2.6686
     24 O2          6.5015   -6.4833    1.5204 O.2       1 <0>        -0.9387
     25 O3          7.4149   -4.1935    1.9571 O.2       1 <0>        -0.9147
     26 O4          5.6188   -2.2768    1.1546 O.3       1 <0>        -0.5294
     27 H2         -0.9596    1.9047    0.0260 H         1 <0>         0.1245
     28 H3          1.1525    3.1682    0.0080 H         1 <0>         0.1303
     29 H4          3.3038    1.9724   -0.0200 H         1 <0>         0.1314
     30 H5          1.2211   -1.7595   -0.0193 H         1 <0>         0.1261
     31 H6         -0.9260   -0.5563    0.0082 H         1 <0>         0.1251
     32 H7          3.0134   -2.4083    0.8497 H         1 <0>         0.0705
     33 H8          2.9951   -2.3988   -0.9302 H         1 <0>         0.0755
     34 H9          4.3501   -4.5655    0.6505 H         1 <0>         0.0995
     35 H10         4.3890   -4.4118   -1.1224 H         1 <0>         0.1062
     36 H11         5.8954   -4.0152   -2.8989 H         1 <0>         0.1334
     37 H12         7.5725   -4.3418   -4.6445 H         1 <0>         0.1345
     38 H13         9.7547   -5.3067   -4.1650 H         1 <0>         0.1392
     39 H14        10.0171   -6.5476    1.6228 H         1 <0>         0.1410
     40 H15        11.7465   -6.8956   -0.1071 H         1 <0>         0.1416
     41 H16        11.3399   -6.2808   -2.4279 H         1 <0>         0.1430
     42 H17         5.1868   -2.6168    1.9502 H         1 <0>         0.3742
@<TRIPOS>BOND
     1    1    6 ar
     2    1    2 ar
     3    1   27 1
     4    2    3 ar
     5    2   28 1
     6    3    4 ar
     7    3   29 1
     8    4    5 ar
     9    4    7 1
    10    5    6 ar
    11    5   30 1
    12    6   31 1
    13    7    8 1
    14    8    9 1
    15    8   32 1
    16    8   33 1
    17    9   10 1
    18    9   11 1
    19    9   26 1
    20   11   12 1
    21   11   34 1
    22   11   35 1
    23   12   23 1
    24   12   13 1
    25   13   18 ar
    26   13   14 ar
    27   14   15 ar
    28   14   36 1
    29   15   16 ar
    30   15   37 1
    31   16   17 ar
    32   16   38 1
    33   17   22 ar
    34   17   18 ar
    35   18   19 ar
    36   19   20 ar
    37   19   23 1
    38   20   21 ar
    39   20   39 1
    40   21   22 ar
    41   21   40 1
    42   22   41 1
    43   23   24 2
    44   23   25 2
    45   26   42 1
@<TRIPOS>MOLECULE
ZINC00490862
   54    56     0     0     0
SMALL
USER_CHARGES
ethyl 1-(2-ethoxyphenyl)-4a-hydroxy-1,3,4,5,6,7,8,8a-octahydroisoquinoline-2-carboxylate
@<TRIPOS>ATOM
      1 C1         -0.5270    4.5369    4.5397 C.3       1 <0>        -0.1508
      2 C2          0.0733    3.7410    3.3790 C.3       1 <0>         0.0571
      3 O1         -0.8155    3.7856    2.2609 O.3       1 <0>        -0.3163
      4 C3         -0.4291    3.1234    1.1388 C.ar      1 <0>         0.1727
      5 C4          0.7807    2.4445    1.1144 C.ar      1 <0>        -0.2067
      6 C5          1.1709    1.7718   -0.0271 C.ar      1 <0>        -0.0798
      7 C6          0.3572    1.7750   -1.1452 C.ar      1 <0>        -0.1548
      8 C7         -0.8461    2.4555   -1.1254 C.ar      1 <0>        -0.0788
      9 C8         -1.2438    3.1247    0.0161 C.ar      1 <0>        -0.0791
     10 C9         -2.5582    3.8615    0.0390 C.3       1 <0>         0.2160
     11 H1         -2.4804    4.7270    0.6971 H         1 <0>         0.0986
     12 C10        -2.9139    4.3213   -1.3788 C.3       1 <0>        -0.0811
     13 H2         -2.8974    3.4664   -2.0548 H         1 <0>         0.0852
     14 C11        -1.8967    5.3685   -1.8391 C.3       1 <0>        -0.1091
     15 C12        -1.9202    6.5576   -0.8766 C.3       1 <0>        -0.1239
     16 C13        -3.3188    7.1775   -0.8636 C.3       1 <0>        -0.1145
     17 C14        -4.3373    6.1303   -0.4082 C.3       1 <0>        -0.1512
     18 C15        -4.3124    4.9434   -1.3729 C.3       1 <0>         0.1417
     19 C16        -5.3382    3.8990   -0.9287 C.3       1 <0>        -0.1623
     20 C17        -5.0082    3.4352    0.4935 C.3       1 <0>         0.1134
     21 N1         -3.6161    2.9661    0.5260 N.am      1 <0>        -0.5911
     22 C18        -3.3156    1.7384    0.9939 C.2       1 <0>         0.6487
     23 O2         -2.1544    1.3990    1.1075 O.2       1 <0>        -0.5434
     24 O3         -4.3020    0.8882    1.3356 O.3       1 <0>        -0.3754
     25 C19        -3.9047   -0.4172    1.8320 C.3       1 <0>         0.0850
     26 C20        -5.1524   -1.2373    2.1658 C.3       1 <0>        -0.1530
     27 O4         -4.6359    5.3977   -2.6885 O.3       1 <0>        -0.5517
     28 H3          0.1510    4.5028    5.3925 H         1 <0>         0.0775
     29 H4         -0.6731    5.5725    4.2328 H         1 <0>         0.0653
     30 H5         -1.4863    4.1023    4.8205 H         1 <0>         0.0637
     31 H6          0.2194    2.7053    3.6858 H         1 <0>         0.0598
     32 H7          1.0326    4.1755    3.0981 H         1 <0>         0.0599
     33 H8          1.4166    2.4417    1.9873 H         1 <0>         0.1206
     34 H9          2.1125    1.2432   -0.0466 H         1 <0>         0.1182
     35 H10         0.6642    1.2488   -2.0369 H         1 <0>         0.1177
     36 H11        -1.4778    2.4602   -2.0013 H         1 <0>         0.1215
     37 H12        -0.8999    4.9277   -1.8481 H         1 <0>         0.0680
     38 H13        -2.1532    5.7078   -2.8427 H         1 <0>         0.0776
     39 H14        -1.6643    6.2177    0.1269 H         1 <0>         0.0627
     40 H15        -1.1954    7.3034   -1.2031 H         1 <0>         0.0649
     41 H16        -3.3350    8.0231   -0.1760 H         1 <0>         0.0612
     42 H17        -3.5737    7.5200   -1.8666 H         1 <0>         0.0699
     43 H18        -5.3339    6.5717   -0.4008 H         1 <0>         0.0676
     44 H19        -4.0835    5.7886    0.5952 H         1 <0>         0.0738
     45 H20        -5.3052    3.0458   -1.6062 H         1 <0>         0.0776
     46 H21        -6.3354    4.3388   -0.9455 H         1 <0>         0.0819
     47 H22        -5.6751    2.6207    0.7763 H         1 <0>         0.0960
     48 H23        -5.1303    4.2658    1.1888 H         1 <0>         0.0741
     49 H24        -3.3233   -0.9346    1.0688 H         1 <0>         0.0687
     50 H25        -3.2989   -0.2955    2.7299 H         1 <0>         0.0677
     51 H26        -5.7338   -0.7200    2.9290 H         1 <0>         0.0657
     52 H27        -5.7582   -1.3591    1.2679 H         1 <0>         0.0660
     53 H28        -4.8541   -2.2173    2.5385 H         1 <0>         0.0815
     54 H29        -5.5093    5.8067   -2.7596 H         1 <0>         0.3758
@<TRIPOS>BOND
     1    1    2 1
     2    1   28 1
     3    1   29 1
     4    1   30 1
     5    2    3 1
     6    2   31 1
     7    2   32 1
     8    3    4 1
     9    4    9 ar
    10    4    5 ar
    11    5    6 ar
    12    5   33 1
    13    6    7 ar
    14    6   34 1
    15    7    8 ar
    16    7   35 1
    17    8    9 ar
    18    8   36 1
    19    9   10 1
    20   10   11 1
    21   10   21 1
    22   10   12 1
    23   12   13 1
    24   12   18 1
    25   12   14 1
    26   14   15 1
    27   14   37 1
    28   14   38 1
    29   15   16 1
    30   15   39 1
    31   15   40 1
    32   16   17 1
    33   16   41 1
    34   16   42 1
    35   17   18 1
    36   17   43 1
    37   17   44 1
    38   18   19 1
    39   18   27 1
    40   19   20 1
    41   19   45 1
    42   19   46 1
    43   20   21 1
    44   20   47 1
    45   20   48 1
    46   21   22 am
    47   22   23 2
    48   22   24 1
    49   24   25 1
    50   25   26 1
    51   25   49 1
    52   25   50 1
    53   26   51 1
    54   26   52 1
    55   26   53 1
    56   27   54 1
@<TRIPOS>MOLECULE
ZINC12082747
   45    47     0     0     0
SMALL
USER_CHARGES
(E)-N-(3-oxo-4-propyl-1,4-benzoxazin-7-yl)-3-phenyl-prop-2-enamide
@<TRIPOS>ATOM
      1 C1          1.3857  -10.0622   -0.0287 C.3       1 <0>        -0.1501
      2 C2          0.0965   -9.3654   -0.4683 C.3       1 <0>        -0.1413
      3 C3         -0.7679   -9.0704    0.7592 C.3       1 <0>         0.1070
      4 N1         -2.0023   -8.4032    0.3383 N.am      1 <0>        -0.5486
      5 C4         -2.0630   -7.0031    0.2547 C.ar      1 <0>         0.0816
      6 C5         -0.9038   -6.2447    0.2530 C.ar      1 <0>        -0.1035
      7 C6         -0.9815   -4.8676    0.1655 C.ar      1 <0>        -0.1340
      8 C7         -2.2197   -4.2426    0.0908 C.ar      1 <0>         0.1554
      9 C8         -3.3839   -5.0004    0.0918 C.ar      1 <0>        -0.1093
     10 C9         -3.3073   -6.3791    0.1733 C.ar      1 <0>         0.0976
     11 O1         -4.4366   -7.1366    0.1742 O.3       1 <0>        -0.2980
     12 C10        -4.3486   -8.4231   -0.4438 C.3       1 <0>         0.0510
     13 C11        -3.0996   -9.1257    0.0242 C.2       1 <0>         0.4870
     14 O2         -3.0802  -10.3349    0.1187 O.2       1 <0>        -0.5067
     15 N2         -2.2943   -2.8475    0.0087 N.am      1 <0>        -0.6673
     16 C12        -3.3074   -2.1904    0.6074 C.2       1 <0>         0.5494
     17 O3         -4.2022   -2.8139    1.1477 O.2       1 <0>        -0.5206
     18 C13        -3.3315   -0.7267    0.6079 C.2       1 <0>        -0.2227
     19 C14        -4.3449   -0.0693    1.2068 C.2       1 <0>        -0.0024
     20 C15        -4.3691    1.4025    1.2073 C.ar      1 <0>        -0.0841
     21 C16        -3.3399    2.1225    0.5927 C.ar      1 <0>        -0.0988
     22 C17        -3.3722    3.5010    0.5932 C.ar      1 <0>        -0.1233
     23 C18        -4.4140    4.1722    1.2095 C.ar      1 <0>        -0.1046
     24 C19        -5.4338    3.4667    1.8241 C.ar      1 <0>        -0.1228
     25 C20        -5.4185    2.0879    1.8275 C.ar      1 <0>        -0.0913
     26 H1          2.0015  -10.2723   -0.9032 H         1 <0>         0.0611
     27 H2          1.9343   -9.4139    0.6547 H         1 <0>         0.0576
     28 H3          1.1399  -10.9967    0.4757 H         1 <0>         0.0588
     29 H4         -0.4520  -10.0137   -1.1516 H         1 <0>         0.0680
     30 H5          0.3423   -8.4309   -0.9726 H         1 <0>         0.0676
     31 H6         -0.2193   -8.4221    1.4426 H         1 <0>         0.0876
     32 H7         -1.0137  -10.0049    1.2636 H         1 <0>         0.0942
     33 H8          0.0594   -6.7291    0.3157 H         1 <0>         0.1393
     34 H9         -0.0779   -4.2761    0.1594 H         1 <0>         0.1369
     35 H10        -4.3464   -4.5145    0.0286 H         1 <0>         0.1565
     36 H11        -5.2219   -9.0164   -0.1727 H         1 <0>         0.1471
     37 H12        -4.3137   -8.3038   -1.5267 H         1 <0>         0.1004
     38 H13        -1.6169   -2.3534   -0.4792 H         1 <0>         0.4152
     39 H14        -2.5375   -0.1734    0.1285 H         1 <0>         0.1335
     40 H15        -5.1389   -0.6226    1.6862 H         1 <0>         0.1386
     41 H16        -2.5238    1.6002    0.1156 H         1 <0>         0.1278
     42 H17        -2.5802    4.0585    0.1154 H         1 <0>         0.1270
     43 H18        -4.4314    5.2520    1.2105 H         1 <0>         0.1258
     44 H19        -6.2436    3.9975    2.3026 H         1 <0>         0.1278
     45 H20        -6.2150    1.5387    2.3075 H         1 <0>         0.1296
@<TRIPOS>BOND
     1    1    2 1
     2    1   26 1
     3    1   27 1
     4    1   28 1
     5    2    3 1
     6    2   29 1
     7    2   30 1
     8    3    4 1
     9    3   31 1
    10    3   32 1
    11    4   13 am
    12    4    5 1
    13    5   10 ar
    14    5    6 ar
    15    6    7 ar
    16    6   33 1
    17    7    8 ar
    18    7   34 1
    19    8    9 ar
    20    8   15 1
    21    9   10 ar
    22    9   35 1
    23   10   11 1
    24   11   12 1
    25   12   13 1
    26   12   36 1
    27   12   37 1
    28   13   14 2
    29   15   16 am
    30   15   38 1
    31   16   17 2
    32   16   18 1
    33   18   19 2
    34   18   39 1
    35   19   20 1
    36   19   40 1
    37   20   25 ar
    38   20   21 ar
    39   21   22 ar
    40   21   41 1
    41   22   23 ar
    42   22   42 1
    43   23   24 ar
    44   23   43 1
    45   24   25 ar
    46   24   44 1
    47   25   45 1
@<TRIPOS>MOLECULE
ZINC00211233
   42    44     0     0     0
SMALL
USER_CHARGES

@<TRIPOS>ATOM
      1 C1         -0.9407    1.8028    0.2338 C.3       1 <0>        -0.1524
      2 C2         -0.7609    0.2861    0.1425 C.3       1 <0>         0.0438
      3 O1         -2.0325   -0.3529    0.2720 O.3       1 <0>        -0.2832
      4 C3         -2.0497   -1.7099    0.2125 C.ar      1 <0>         0.2322
      5 C4         -0.8860   -2.4046    0.0415 C.ar      1 <0>        -0.2491
      6 C5         -0.8838   -3.7951   -0.0214 C.ar      1 <0>         0.0635
      7 C6         -2.0426   -4.5029    0.0853 C.ar      1 <0>        -0.7081
      8 C7         -3.2591   -3.8243    0.2619 C.ar      1 <0>         0.0170
      9 C8         -3.2684   -2.4096    0.3327 C.ar      1 <0>         0.0898
     10 N1         -4.4228   -1.7595    0.5053 N.ar      1 <0>        -0.4369
     11 C9         -5.5583   -2.4049    0.6172 C.ar      1 <0>         0.1124
     12 C10        -5.6193   -3.7958    0.5620 C.ar      1 <0>        -0.1290
     13 C11        -4.4772   -4.5211    0.3758 C.ar      1 <0>        -0.1000
     14 S1         -2.0152   -6.2627    0.0016 S.o2      1 <0>         2.6952
     15 O2         -3.0103   -6.6400   -0.9400 O.2       1 <0>        -0.9472
     16 O3         -0.6527   -6.6416   -0.1369 O.2       1 <0>        -0.9473
     17 N2         -2.5172   -6.8308    1.4739 N.pl3     1 <0>        -1.0572
     18 C12        -1.7861   -6.5290    2.6251 C.ar      1 <0>         0.1468
     19 C13        -0.4017   -6.6460    2.6213 C.ar      1 <0>        -0.1578
     20 C14         0.3180   -6.3464    3.7610 C.ar      1 <0>        -0.0918
     21 C15        -0.3377   -5.9306    4.9056 C.ar      1 <0>        -0.1272
     22 C16        -1.7153   -5.8134    4.9129 C.ar      1 <0>        -0.0682
     23 C17        -2.4409   -6.1056    3.7745 C.ar      1 <0>        -0.1295
     24 C18        -2.4256   -5.3609    6.1626 C.3       1 <0>        -0.1172
     25 H1          0.0292    2.2902    0.1350 H         1 <0>         0.0832
     26 H2         -1.5997    2.1394   -0.5664 H         1 <0>         0.0694
     27 H3         -1.3796    2.0592    1.1981 H         1 <0>         0.0692
     28 H4         -0.3220    0.0297   -0.8217 H         1 <0>         0.0704
     29 H5         -0.1019   -0.0505    0.9427 H         1 <0>         0.0703
     30 H6          0.0464   -1.8667   -0.0466 H         1 <0>         0.1481
     31 H7          0.0501   -4.3203   -0.1572 H         1 <0>         0.1531
     32 H8         -6.4705   -1.8437    0.7561 H         1 <0>         0.1683
     33 H9         -6.5700   -4.2994    0.6573 H         1 <0>         0.1488
     34 H10        -4.5059   -5.5998    0.3299 H         1 <0>         0.1445
     35 H11        -3.3189   -7.3731    1.5368 H         1 <0>         0.4268
     36 H12         0.1109   -6.9714    1.7281 H         1 <0>         0.1553
     37 H13         1.3942   -6.4372    3.7588 H         1 <0>         0.1312
     38 H14         0.2276   -5.6972    5.7957 H         1 <0>         0.1258
     39 H15        -3.5166   -6.0093    3.7794 H         1 <0>         0.1271
     40 H16        -2.5153   -4.2746    6.1564 H         1 <0>         0.0721
     41 H17        -3.4193   -5.8074    6.1977 H         1 <0>         0.0678
     42 H18        -1.8558   -5.6734    7.0377 H         1 <0>         0.0699
@<TRIPOS>BOND
     1    1    2 1
     2    1   25 1
     3    1   26 1
     4    1   27 1
     5    2    3 1
     6    2   28 1
     7    2   29 1
     8    3    4 1
     9    4    9 ar
    10    4    5 ar
    11    5    6 ar
    12    5   30 1
    13    6    7 ar
    14    6   31 1
    15    7    8 ar
    16    7   14 1
    17    8   13 ar
    18    8    9 ar
    19    9   10 ar
    20   10   11 ar
    21   11   12 ar
    22   11   32 1
    23   12   13 ar
    24   12   33 1
    25   13   34 1
    26   14   15 2
    27   14   16 2
    28   14   17 1
    29   17   18 1
    30   17   35 1
    31   18   23 ar
    32   18   19 ar
    33   19   20 ar
    34   19   36 1
    35   20   21 ar
    36   20   37 1
    37   21   22 ar
    38   21   38 1
    39   22   23 ar
    40   22   24 1
    41   23   39 1
    42   24   40 1
    43   24   41 1
    44   24   42 1
@<TRIPOS>MOLECULE
ZINC44225058
   39    41     0     0     0
SMALL
USER_CHARGES

@<TRIPOS>ATOM
      1 C1         -0.0187    1.5258    0.0104 C.3       1 <0>        -0.1426
      2 C2          0.0021   -0.0041    0.0020 C.3       1 <0>        -0.0498
      3 C3          0.7182   -0.4975   -1.2568 C.3       1 <0>        -0.1508
      4 C4          0.7309   -0.5033    1.2229 C.ar      1 <0>         0.2020
      5 C5          2.1073   -0.6142    1.2183 C.ar      1 <0>        -0.2013
      6 C6          2.7386   -1.0813    2.3736 C.ar      1 <0>         0.1456
      7 N1          1.9943   -1.4002    3.4296 N.ar      1 <0>        -0.5375
      8 C7          0.6833   -1.2784    3.3892 C.ar      1 <0>         0.3159
      9 N2          0.0588   -0.8360    2.3161 N.ar      1 <0>        -0.5250
     10 S1          4.4919   -1.2461    2.4314 S.3       1 <0>         0.0427
     11 C8          4.8189   -1.8733    4.1018 C.3       1 <0>        -0.1431
     12 C9          6.3027   -2.0615    4.2862 C.2       1 <0>         0.5278
     13 O1          7.0645   -1.7984    3.3801 O.2       1 <0>        -0.4470
     14 N3          6.7830   -2.5222    5.4582 N.am      1 <0>        -0.6128
     15 C10         8.1471   -2.6952    5.6277 C.2       1 <0>         0.3695
     16 N4          9.1186   -2.4627    4.7761 N.2       1 <0>        -0.5038
     17 C11        10.4168   -2.6787    5.0792 C.ar      1 <0>         0.0998
     18 C12        11.5509   -2.4717    4.2600 C.ar      1 <0>        -0.0634
     19 C13        12.8102   -2.7450    4.7258 C.ar      1 <0>        -0.1057
     20 C14        13.0194   -3.2308    6.0086 C.ar      1 <0>        -0.0985
     21 C15        11.9333   -3.4446    6.8371 C.ar      1 <0>        -0.0626
     22 C16        10.6679   -3.1741    6.3790 C.ar      1 <0>        -0.1477
     23 S2          9.0324   -3.2842    7.0642 S.3       1 <0>         0.0102
     24 H1          1.0039    1.9031    0.0027 H         1 <0>         0.0587
     25 H2         -0.5459    1.8868   -0.8726 H         1 <0>         0.0703
     26 H3         -0.5289    1.8773    0.9072 H         1 <0>         0.0601
     27 H4         -1.0205   -0.3814    0.0098 H         1 <0>         0.0979
     28 H5          1.7408   -0.1202   -1.2645 H         1 <0>         0.0624
     29 H6          0.7330   -1.5874   -1.2628 H         1 <0>         0.0597
     30 H7          0.1910   -0.1364   -2.1398 H         1 <0>         0.0706
     31 H8          2.6813   -0.3469    0.3434 H         1 <0>         0.1536
     32 H9          0.1043   -1.5450    4.2610 H         1 <0>         0.1999
     33 H10         4.4491   -1.1587    4.8371 H         1 <0>         0.1325
     34 H11         4.3119   -2.8288    4.2368 H         1 <0>         0.1326
     35 H12         6.1737   -2.7326    6.1830 H         1 <0>         0.4329
     36 H13        11.4229   -2.0945    3.2562 H         1 <0>         0.1352
     37 H14        13.6594   -2.5788    4.0795 H         1 <0>         0.1363
     38 H15        14.0203   -3.4401    6.3562 H         1 <0>         0.1406
     39 H16        12.0796   -3.8221    7.8384 H         1 <0>         0.1350
@<TRIPOS>BOND
     1    1    2 1
     2    1   24 1
     3    1   25 1
     4    1   26 1
     5    2    3 1
     6    2    4 1
     7    2   27 1
     8    3   28 1
     9    3   29 1
    10    3   30 1
    11    4    9 ar
    12    4    5 ar
    13    5    6 ar
    14    5   31 1
    15    6    7 ar
    16    6   10 1
    17    7    8 ar
    18    8    9 ar
    19    8   32 1
    20   10   11 1
    21   11   12 1
    22   11   33 1
    23   11   34 1
    24   12   13 2
    25   12   14 am
    26   14   15 1
    27   14   35 1
    28   15   23 1
    29   15   16 2
    30   16   17 1
    31   17   22 ar
    32   17   18 ar
    33   18   19 ar
    34   18   36 1
    35   19   20 ar
    36   19   37 1
    37   20   21 ar
    38   20   38 1
    39   21   22 ar
    40   21   39 1
    41   22   23 1
@<TRIPOS>MOLECULE
ZINC55841671
   53    54     0     0     0
SMALL
USER_CHARGES

@<TRIPOS>ATOM
      1 C1         -3.3816    1.4547    1.5715 C.3       1 <0>        -0.1229
      2 C2         -3.2961   -0.0409    1.4068 C.2       1 <0>        -0.1127
      3 C3         -2.3361   -0.7107    1.9948 C.2       1 <0>        -0.1480
      4 C4         -1.3173    0.0142    2.8360 C.3       1 <0>        -0.0994
      5 H1         -1.6497    0.9586    3.2669 H         1 <0>         0.1227
      6 C5         -0.3477   -0.8357    3.6597 C.3       1 <0>        -0.1805
      7 H2         -0.0419   -0.4502    4.6323 H         1 <0>         0.1382
      8 C6          0.1503   -0.0935    2.4170 C.3       1 <0>        -0.0751
      9 C7          1.0391    1.1326    2.6354 C.3       1 <0>        -0.1182
     10 C8          0.4712   -0.9289    1.1760 C.3       1 <0>        -0.1193
     11 C9         -0.4849   -2.3337    3.5681 C.2       1 <0>         0.5486
     12 O1          0.4111   -2.9966    3.0897 O.2       1 <0>        -0.5085
     13 N1         -1.6032   -2.9367    4.0177 N.am      1 <0>        -0.6579
     14 C10        -1.6811   -4.3357    4.0483 C.ar      1 <0>         0.1173
     15 C11        -0.5250   -5.0916    4.1168 C.ar      1 <0>        -0.0429
     16 C12        -0.6071   -6.4858    4.1476 C.ar      1 <0>        -0.1484
     17 C13        -1.8563   -7.1104    4.1091 C.ar      1 <0>        -0.0682
     18 C14        -3.0048   -6.3521    4.0404 C.ar      1 <0>        -0.1951
     19 C15        -2.9253   -4.9665    4.0155 C.ar      1 <0>         0.1227
     20 O2         -4.0602   -4.2236    3.9539 O.3       1 <0>        -0.3141
     21 C16        -5.2997   -4.9341    3.9232 C.3       1 <0>         0.0268
     22 C17         0.6236   -7.2976    4.2202 C.2       1 <0>         0.5640
     23 O3          1.5579   -6.9255    4.9036 O.2       1 <0>        -0.5297
     24 N2          0.7117   -8.4512    3.5289 N.am      1 <0>        -0.6181
     25 C18         1.8771   -9.3219    3.7023 C.3       1 <0>         0.0841
     26 C19        -0.3579   -8.8345    2.6042 C.3       1 <0>         0.0626
     27 C20        -4.3149   -0.7658    0.5656 C.3       1 <0>        -0.1189
     28 H3         -2.8073    1.9405    0.7827 H         1 <0>         0.0687
     29 H4         -4.4237    1.7681    1.5080 H         1 <0>         0.0616
     30 H5         -2.9758    1.7370    2.5430 H         1 <0>         0.0673
     31 H6         -2.2747   -1.7825    1.8767 H         1 <0>         0.1100
     32 H7          1.0600    1.3818    3.6963 H         1 <0>         0.0604
     33 H8          2.0507    0.9135    2.2936 H         1 <0>         0.0667
     34 H9          0.6398    1.9758    2.0718 H         1 <0>         0.0657
     35 H10         0.0352   -0.4552    0.2964 H         1 <0>         0.0587
     36 H11         1.5521   -0.9973    1.0536 H         1 <0>         0.0634
     37 H12         0.0548   -1.9293    1.2938 H         1 <0>         0.0670
     38 H13        -2.3542   -2.4024    4.3202 H         1 <0>         0.4184
     39 H14         0.4389   -4.6053    4.1461 H         1 <0>         0.1628
     40 H15        -1.9218   -8.1882    4.1328 H         1 <0>         0.1370
     41 H16        -3.9694   -6.8370    4.0100 H         1 <0>         0.1405
     42 H17        -5.3942   -5.5390    4.8250 H         1 <0>         0.0593
     43 H18        -6.1247   -4.2234    3.8744 H         1 <0>         0.1037
     44 H19        -5.3257   -5.5817    3.0469 H         1 <0>         0.0590
     45 H20         1.6842  -10.0311    4.5072 H         1 <0>         0.0567
     46 H21         2.0655   -9.8654    2.7764 H         1 <0>         0.0715
     47 H22         2.7487   -8.7169    3.9522 H         1 <0>         0.0795
     48 H23        -1.0779   -8.0201    2.5238 H         1 <0>         0.0904
     49 H24         0.0675   -9.0415    1.6222 H         1 <0>         0.0654
     50 H25        -0.8592   -9.7271    2.9784 H         1 <0>         0.0626
     51 H26        -3.9656   -0.8152   -0.4658 H         1 <0>         0.0672
     52 H27        -4.4522   -1.7759    0.9515 H         1 <0>         0.0628
     53 H28        -5.2637   -0.2305    0.6025 H         1 <0>         0.0642
@<TRIPOS>BOND
     1    1    2 1
     2    1   28 1
     3    1   29 1
     4    1   30 1
     5    2    3 2
     6    2   27 1
     7    3    4 1
     8    3   31 1
     9    4    5 1
    10    4    8 1
    11    4    6 1
    12    6    7 1
    13    6    8 1
    14    6   11 1
    15    8    9 1
    16    8   10 1
    17    9   32 1
    18    9   33 1
    19    9   34 1
    20   10   35 1
    21   10   36 1
    22   10   37 1
    23   11   12 2
    24   11   13 am
    25   13   14 1
    26   13   38 1
    27   14   19 ar
    28   14   15 ar
    29   15   16 ar
    30   15   39 1
    31   16   17 ar
    32   16   22 1
    33   17   18 ar
    34   17   40 1
    35   18   19 ar
    36   18   41 1
    37   19   20 1
    38   20   21 1
    39   21   42 1
    40   21   43 1
    41   21   44 1
    42   22   23 2
    43   22   24 am
    44   24   25 1
    45   24   26 1
    46   25   45 1
    47   25   46 1
    48   25   47 1
    49   26   48 1
    50   26   49 1
    51   26   50 1
    52   27   51 1
    53   27   52 1
    54   27   53 1
@<TRIPOS>MOLECULE
ZINC67041612
   59    60     0     0     0
SMALL
USER_CHARGES

@<TRIPOS>ATOM
      1 C1          0.3085    1.5921    0.1945 C.3       1 <0>        -0.1286
      2 C2          0.0199    0.0916    0.1157 C.3       1 <0>        -0.0852
      3 C3          0.8084   -0.6373    1.2056 C.3       1 <0>        -0.1502
      4 C4         -1.4768   -0.1513    0.3201 C.3       1 <0>        -0.1613
      5 C5          0.4332   -0.4291   -1.2367 C.2       1 <0>         0.5259
      6 O1          1.0585    0.2816   -1.9949 O.2       1 <0>        -0.5275
      7 N1          0.1080   -1.6845   -1.6037 N.am      1 <0>        -0.5966
      8 C6          0.4435   -2.1926   -2.8877 C.3       1 <0>         0.1152
      9 C7         -0.5717   -1.8259   -4.0191 C.3       1 <0>        -0.1505
     10 C8         -2.0045   -1.8923   -3.3966 C.3       1 <0>         0.1336
     11 N2         -2.1970   -2.9476   -2.4645 N.am      1 <0>        -0.6144
     12 C9         -2.0344   -2.6159   -1.0256 C.3       1 <0>         0.0713
     13 C10        -0.6114   -2.6003   -0.6815 C.3       1 <0>         0.0682
     14 C11        -2.5134   -4.1940   -2.8680 C.2       1 <0>         0.7079
     15 O2         -2.6403   -4.4356   -4.0528 O.2       1 <0>        -0.5798
     16 N3         -2.6891   -5.1726   -1.9581 N.am      1 <0>        -0.7465
     17 C12        -3.0331   -6.5274   -2.3966 C.3       1 <0>         0.1359
     18 C13        -3.1745   -7.4383   -1.1755 C.3       1 <0>        -0.1308
     19 C14        -3.5337   -8.8532   -1.6335 C.3       1 <0>        -0.1092
     20 C15        -3.6752   -9.7641   -0.4124 C.3       1 <0>        -0.0918
     21 C16        -2.3012   -9.9636    0.2600 C.3       1 <0>        -0.1205
     22 C17        -2.3189  -11.4394    0.7299 C.3       1 <0>        -0.1276
     23 C18        -3.0604  -12.1569   -0.4253 C.3       1 <0>        -0.1264
     24 C19        -4.1579  -11.1587   -0.8481 C.3       1 <0>        -0.1230
     25 H1          1.3748    1.7651    0.0489 H         1 <0>         0.0648
     26 H2         -0.2532    2.1114   -0.5819 H         1 <0>         0.0607
     27 H3          0.0095    1.9687    1.1727 H         1 <0>         0.0638
     28 H4          0.3777   -0.4083    2.1804 H         1 <0>         0.0727
     29 H5          0.7611   -1.7122    1.0310 H         1 <0>         0.0655
     30 H6          1.8481   -0.3108    1.1819 H         1 <0>         0.0656
     31 H7         -2.0115    0.0798   -0.6011 H         1 <0>         0.0629
     32 H8         -1.6426   -1.1958    0.5842 H         1 <0>         0.0740
     33 H9         -1.8425    0.4889    1.1229 H         1 <0>         0.0723
     34 H10         1.4243   -1.8069   -3.1659 H         1 <0>         0.0717
     35 H11         0.5100   -3.2786   -2.8225 H         1 <0>         0.0680
     36 H12        -0.3722   -0.8185   -4.3842 H         1 <0>         0.0783
     37 H13        -0.4893   -2.5411   -4.8375 H         1 <0>         0.0800
     38 H14        -2.2063   -0.9466   -2.8936 H         1 <0>         0.0680
     39 H15        -2.7266   -2.0098   -4.2046 H         1 <0>         0.0732
     40 H16        -2.4673   -1.6352   -0.8282 H         1 <0>         0.1012
     41 H17        -2.5444   -3.3655   -0.4206 H         1 <0>         0.0880
     42 H18        -0.2026   -3.6062   -0.7770 H         1 <0>         0.0821
     43 H19        -0.4861   -2.2542    0.3445 H         1 <0>         0.1146
     44 H20        -2.5879   -4.9798   -1.0128 H         1 <0>         0.3934
     45 H21        -3.9757   -6.5040   -2.9435 H         1 <0>         0.0663
     46 H22        -2.2457   -6.9100   -3.0460 H         1 <0>         0.0662
     47 H23        -2.2319   -7.4617   -0.6286 H         1 <0>         0.0697
     48 H24        -3.9619   -7.0557   -0.5261 H         1 <0>         0.0682
     49 H25        -4.4763   -8.8298   -2.1804 H         1 <0>         0.0663
     50 H26        -2.7463   -9.2358   -2.2829 H         1 <0>         0.0673
     51 H27        -4.3795   -9.3300    0.2973 H         1 <0>         0.0712
     52 H28        -1.4977   -9.8016   -0.4585 H         1 <0>         0.0667
     53 H29        -2.1927   -9.2931    1.1126 H         1 <0>         0.0627
     54 H30        -1.3042  -11.8235    0.8351 H         1 <0>         0.0647
     55 H31        -2.8702  -11.5406    1.6647 H         1 <0>         0.0656
     56 H32        -2.3796  -12.3492   -1.2545 H         1 <0>         0.0645
     57 H33        -3.5061  -13.0871   -0.0729 H         1 <0>         0.0635
     58 H34        -5.0961  -11.4018   -0.3492 H         1 <0>         0.0626
     59 H35        -4.2914  -11.1865   -1.9295 H         1 <0>         0.0652
@<TRIPOS>BOND
     1    1    2 1
     2    1   25 1
     3    1   26 1
     4    1   27 1
     5    2    3 1
     6    2    4 1
     7    2    5 1
     8    3   28 1
     9    3   29 1
    10    3   30 1
    11    4   31 1
    12    4   32 1
    13    4   33 1
    14    5    6 2
    15    5    7 am
    16    7   13 1
    17    7    8 1
    18    8    9 1
    19    8   34 1
    20    8   35 1
    21    9   10 1
    22    9   36 1
    23    9   37 1
    24   10   11 1
    25   10   38 1
    26   10   39 1
    27   11   12 1
    28   11   14 am
    29   12   13 1
    30   12   40 1
    31   12   41 1
    32   13   42 1
    33   13   43 1
    34   14   15 2
    35   14   16 am
    36   16   17 1
    37   16   44 1
    38   17   18 1
    39   17   45 1
    40   17   46 1
    41   18   19 1
    42   18   47 1
    43   18   48 1
    44   19   20 1
    45   19   49 1
    46   19   50 1
    47   20   24 1
    48   20   21 1
    49   20   51 1
    50   21   22 1
    51   21   52 1
    52   21   53 1
    53   22   23 1
    54   22   54 1
    55   22   55 1
    56   23   24 1
    57   23   56 1
    58   23   57 1
    59   24   58 1
    60   24   59 1
@<TRIPOS>MOLECULE
ZINC12882790
   48    51     0     0     0
SMALL
USER_CHARGES
N-[(1S)-1-(1-adamantyl)ethyl]-3-(triazol-1-yl)propanamide
@<TRIPOS>ATOM
      1 C1          2.7920    0.8322   -1.4572 C.3       1 <0>        -0.1678
      2 C2          2.4220    1.1832   -0.0147 C.3       1 <0>         0.1519
      3 H1          2.3338    0.2679    0.5707 H         1 <0>         0.0900
      4 C3          3.5111    2.0719    0.5893 C.3       1 <0>        -0.0589
      5 C4          3.1412    2.4229    2.0318 C.3       1 <0>        -0.1011
      6 C5          4.2303    3.3116    2.6359 C.3       1 <0>        -0.0863
      7 C6          5.5655    2.5647    2.6191 C.3       1 <0>        -0.1095
      8 C7          5.9355    2.2138    1.1766 C.3       1 <0>        -0.0853
      9 C8          4.8463    1.3250    0.5726 C.3       1 <0>        -0.1019
     10 C9          6.0593    3.4984    0.3549 C.3       1 <0>        -0.1087
     11 C10         4.7241    4.2453    0.3716 C.3       1 <0>        -0.0857
     12 C11         4.3542    4.5963    1.8142 C.3       1 <0>        -0.1092
     13 C12         3.6350    3.3566   -0.2324 C.3       1 <0>        -0.1046
     14 N1          1.1435    1.8983    0.0013 N.am      1 <0>        -0.7199
     15 C13        -0.0144    1.2086    0.0087 C.2       1 <0>         0.5225
     16 O1          0.0021   -0.0041    0.0020 O.2       1 <0>        -0.5382
     17 C14        -1.3296    1.9443    0.0189 C.3       1 <0>        -0.1572
     18 C15        -2.4789    0.9344    0.0189 C.3       1 <0>         0.1324
     19 N2         -3.7574    1.6495    0.0288 N.pl3     1 <0>        -0.2937
     20 C16        -4.7585    1.4965   -0.8686 C.2       1 <0>        -0.0474
     21 C17        -5.7429    2.3417   -0.4832 C.2       1 <0>        -0.0510
     22 N3         -5.2986    2.9679    0.6122 N.2       1 <0>        -0.2695
     23 N4         -4.1193    2.5355    0.8896 N.2       1 <0>        -0.0869
     24 H2          3.7432    0.3001   -1.4692 H         1 <0>         0.0703
     25 H3          2.0161    0.1990   -1.8876 H         1 <0>         0.0597
     26 H4          2.8802    1.7474   -2.0426 H         1 <0>         0.0607
     27 H5          2.1899    2.9550    2.0438 H         1 <0>         0.0617
     28 H6          3.0529    1.5077    2.6172 H         1 <0>         0.0631
     29 H7          3.9667    3.5616    3.6635 H         1 <0>         0.0700
     30 H8          5.4772    1.6495    3.2045 H         1 <0>         0.0619
     31 H9          6.3414    3.1979    3.0494 H         1 <0>         0.0622
     32 H10         6.8867    1.6817    1.1647 H         1 <0>         0.0713
     33 H11         4.7581    0.4098    1.1580 H         1 <0>         0.0650
     34 H12         5.1099    1.0750   -0.4551 H         1 <0>         0.0690
     35 H13         6.8353    4.1316    0.7852 H         1 <0>         0.0623
     36 H14         6.3229    3.2484   -0.6728 H         1 <0>         0.0619
     37 H15         4.8124    5.1605   -0.2138 H         1 <0>         0.0702
     38 H16         3.4029    5.1283    1.8261 H         1 <0>         0.0608
     39 H17         5.1301    5.2294    2.2445 H         1 <0>         0.0625
     40 H18         3.8986    3.1065   -1.2601 H         1 <0>         0.0694
     41 H19         2.6838    3.8886   -0.2205 H         1 <0>         0.0579
     42 H20         1.1304    2.8682    0.0067 H         1 <0>         0.4012
     43 H21        -1.3916    2.5653    0.9126 H         1 <0>         0.1133
     44 H22        -1.4000    2.5749   -0.8673 H         1 <0>         0.1031
     45 H23        -2.4169    0.3134   -0.8748 H         1 <0>         0.1155
     46 H24        -2.4084    0.3037    0.9051 H         1 <0>         0.1099
     47 H25        -4.7704    0.8321   -1.7200 H         1 <0>         0.1918
     48 H26        -6.6976    2.4852   -0.9672 H         1 <0>         0.1912
@<TRIPOS>BOND
     1    1    2 1
     2    1   24 1
     3    1   25 1
     4    1   26 1
     5    2    3 1
     6    2    4 1
     7    2   14 1
     8    4    9 1
     9    4   13 1
    10    4    5 1
    11    5    6 1
    12    5   27 1
    13    5   28 1
    14    6   12 1
    15    6    7 1
    16    6   29 1
    17    7    8 1
    18    7   30 1
    19    7   31 1
    20    8    9 1
    21    8   10 1
    22    8   32 1
    23    9   33 1
    24    9   34 1
    25   10   11 1
    26   10   35 1
    27   10   36 1
    28   11   12 1
    29   11   13 1
    30   11   37 1
    31   12   38 1
    32   12   39 1
    33   13   40 1
    34   13   41 1
    35   14   15 am
    36   14   42 1
    37   15   16 2
    38   15   17 1
    39   17   18 1
    40   17   43 1
    41   17   44 1
    42   18   19 1
    43   18   45 1
    44   18   46 1
    45   19   23 1
    46   19   20 1
    47   20   21 2
    48   20   47 1
    49   21   22 1
    50   21   48 1
    51   22   23 2
@<TRIPOS>MOLECULE
ZINC33259762
   40    41     0     0     0
SMALL
USER_CHARGES
2-(4-ethyl-3-oxo-quinoxalin-2-yl)sulfanyl-N-isopropyl-acetamide
@<TRIPOS>ATOM
      1 C1          4.0655    2.9381   -1.4623 C.3       1 <0>        -0.1718
      2 C2          3.6309    3.1753   -0.0146 C.3       1 <0>         0.0906
      3 N1          2.3453    3.8777    0.0005 N.am      1 <0>        -0.5077
      4 C3          1.1580    3.1673    0.0075 C.ar      1 <0>         0.1430
      5 C4          1.1746    1.7764    0.0004 C.ar      1 <0>        -0.1558
      6 C5         -0.0126    1.0758    0.0080 C.ar      1 <0>        -0.0643
      7 C6         -1.2266    1.7484    0.0174 C.ar      1 <0>        -0.1392
      8 C7         -1.2655    3.1128    0.0299 C.ar      1 <0>        -0.0419
      9 C8         -0.0716    3.8484    0.0225 C.ar      1 <0>         0.0414
     10 N2         -0.1110    5.1972    0.0301 N.2       1 <0>        -0.4280
     11 C9          0.9916    5.9042    0.0234 C.2       1 <0>         0.0668
     12 C10         2.3025    5.2279    0.0067 C.2       1 <0>         0.5185
     13 O1          3.3316    5.8776   -0.0000 O.2       1 <0>        -0.4945
     14 S1          0.9089    7.6642    0.0336 S.3       1 <0>         0.1097
     15 C11        -0.8863    7.8945    0.0520 C.3       1 <0>        -0.1640
     16 C12        -1.2037    9.3677    0.0629 C.2       1 <0>         0.5324
     17 O2         -0.3047   10.1817    0.0587 O.2       1 <0>        -0.5271
     18 N3         -2.4865    9.7805    0.0774 N.am      1 <0>        -0.7326
     19 C13        -2.7951   11.2126    0.0880 C.3       1 <0>         0.1387
     20 C14        -4.1863   11.4390   -0.5071 C.3       1 <0>        -0.1610
     21 C15        -2.7659   11.7299    1.5276 C.3       1 <0>        -0.1659
     22 H1          5.0308    2.4107   -1.4736 H         1 <0>         0.0813
     23 H2          4.1697    3.9047   -1.9769 H         1 <0>         0.0659
     24 H3          3.3085    2.3283   -1.9772 H         1 <0>         0.0623
     25 H4          3.5267    2.2087    0.5000 H         1 <0>         0.0968
     26 H5          4.3879    3.7850    0.5003 H         1 <0>         0.1039
     27 H6          2.1156    1.2465   -0.0114 H         1 <0>         0.1377
     28 H7          0.0021   -0.0041    0.0020 H         1 <0>         0.1364
     29 H8         -2.1491    1.1869    0.0187 H         1 <0>         0.1361
     30 H9         -2.2158    3.6259    0.0410 H         1 <0>         0.1409
     31 H10        -1.3245    7.4316   -0.8445 H         1 <0>         0.1265
     32 H11        -1.3074    7.4220    0.9517 H         1 <0>         0.1265
     33 H12        -3.3019    9.0421    0.0813 H         1 <0>         0.4223
     34 H13        -2.0275   11.7142   -0.5196 H         1 <0>         0.0890
     35 H14        -4.4179   12.5143   -0.4991 H         1 <0>         0.0745
     36 H15        -4.9338   10.8984    0.0921 H         1 <0>         0.0630
     37 H16        -4.2073   11.0671   -1.5421 H         1 <0>         0.0627
     38 H17        -2.9976   12.8052    1.5356 H         1 <0>         0.0675
     39 H18        -1.7657   11.5671    1.9555 H         1 <0>         0.0611
     40 H19        -3.5134   11.1893    2.1267 H         1 <0>         0.0581
@<TRIPOS>BOND
     1    1    2 1
     2    1   22 1
     3    1   23 1
     4    1   24 1
     5    2    3 1
     6    2   25 1
     7    2   26 1
     8    3   12 am
     9    3    4 1
    10    4    9 ar
    11    4    5 ar
    12    5    6 ar
    13    5   27 1
    14    6    7 ar
    15    6   28 1
    16    7    8 ar
    17    7   29 1
    18    8    9 ar
    19    8   30 1
    20    9   10 1
    21   10   11 2
    22   11   12 1
    23   11   14 1
    24   12   13 2
    25   14   15 1
    26   15   16 1
    27   15   31 1
    28   15   32 1
    29   16   17 2
    30   16   18 am
    31   18   19 1
    32   18   33 1
    33   19   20 1
    34   19   21 1
    35   19   34 1
    36   20   35 1
    37   20   36 1
    38   20   37 1
    39   21   38 1
    40   21   39 1
    41   21   40 1
@<TRIPOS>MOLECULE
ZINC44022795
   37    37     0     0     0
SMALL
USER_CHARGES

@<TRIPOS>ATOM
      1 C1         -0.0187    1.5258    0.0104 C.3       1 <0>        -0.1451
      2 C2          0.0021   -0.0041    0.0020 C.3       1 <0>        -0.0191
      3 C3          0.7182   -0.4975   -1.2568 C.3       1 <0>        -0.1455
      4 C4          0.7309   -0.5033    1.2229 C.2       1 <0>         0.1312
      5 C5          0.1904   -1.3391    2.2319 C.2       1 <0>        -0.2389
      6 C6          1.1986   -1.5529    3.1639 C.2       1 <0>         0.1543
      7 N1          2.2827   -0.8836    2.7389 N.pl3     1 <0>        -0.3461
      8 N2          1.9704   -0.2467    1.5331 N.2       1 <0>        -0.2635
      9 C7          3.5781   -0.8337    3.4212 C.3       1 <0>         0.0884
     10 Cl1         1.0789   -2.5071    4.6092 Cl        1 <0>         0.0195
     11 C8         -1.1692   -1.8741    2.2826 C.2       1 <0>         0.1142
     12 C9         -1.3729   -3.2213    2.5015 C.2       1 <0>        -0.1325
     13 C10        -0.2525   -4.0953    2.6790 C.1       1 <0>         0.2436
     14 N3          0.6363   -4.7886    2.8198 N.1       1 <0>        -0.4032
     15 C11        -2.7397   -3.7591    2.5525 C.2       1 <0>         0.5768
     16 O1         -3.6916   -3.0166    2.4018 O.2       1 <0>        -0.5275
     17 N4         -2.9386   -5.0749    2.7663 N.am      1 <0>        -0.7229
     18 C12        -4.3010   -5.6110    2.8172 C.3       1 <0>         0.1472
     19 C13        -4.2475   -7.0962    3.0664 C.2       1 <0>        -0.1839
     20 C14        -4.9002   -7.6148    4.0769 C.2       1 <0>        -0.1593
     21 H1          1.0039    1.9031    0.0027 H         1 <0>         0.0625
     22 H2         -0.5459    1.8868   -0.8726 H         1 <0>         0.0682
     23 H3         -0.5289    1.8773    0.9072 H         1 <0>         0.0593
     24 H4         -1.0205   -0.3814    0.0098 H         1 <0>         0.0967
     25 H5          1.7408   -0.1202   -1.2645 H         1 <0>         0.0627
     26 H6          0.7330   -1.5874   -1.2628 H         1 <0>         0.0568
     27 H7          0.1910   -0.1364   -2.1398 H         1 <0>         0.0685
     28 H8          4.2067   -1.6510    3.0677 H         1 <0>         0.0872
     29 H9          4.0650    0.1178    3.2073 H         1 <0>         0.1036
     30 H10         3.4265   -0.9307    4.4963 H         1 <0>         0.0941
     31 H11        -2.0142   -1.2149    2.1488 H         1 <0>         0.1690
     32 H12        -2.1797   -5.6669    2.8866 H         1 <0>         0.4017
     33 H13        -4.8521   -5.1269    3.6235 H         1 <0>         0.0772
     34 H14        -4.8024   -5.4196    1.8685 H         1 <0>         0.0821
     35 H15        -3.6710   -7.7332    2.4119 H         1 <0>         0.1160
     36 H16        -5.4767   -6.9779    4.7315 H         1 <0>         0.1021
     37 H17        -4.8618   -8.6792    4.2555 H         1 <0>         0.1048
@<TRIPOS>BOND
     1    1    2 1
     2    1   21 1
     3    1   22 1
     4    1   23 1
     5    2    3 1
     6    2    4 1
     7    2   24 1
     8    3   25 1
     9    3   26 1
    10    3   27 1
    11    4    8 2
    12    4    5 1
    13    5    6 2
    14    5   11 1
    15    6    7 1
    16    6   10 1
    17    7    8 1
    18    7    9 1
    19    9   28 1
    20    9   29 1
    21    9   30 1
    22   11   12 2
    23   11   31 1
    24   12   13 1
    25   12   15 1
    26   13   14 3
    27   15   16 2
    28   15   17 am
    29   17   18 1
    30   17   32 1
    31   18   19 1
    32   18   33 1
    33   18   34 1
    34   19   20 2
    35   19   35 1
    36   20   36 1
    37   20   37 1
@<TRIPOS>MOLECULE
ZINC59949454
   42    44     0     0     0
SMALL
USER_CHARGES

@<TRIPOS>ATOM
      1 C1         -1.2664    0.4477    0.5793 C.3       1 <0>         0.1146
      2 N1          0.0021   -0.0041    0.0020 N.pl3     1 <0>        -0.6542
      3 C2          1.2690    0.3638    0.6391 C.3       1 <0>         0.1182
      4 C3          1.6515   -0.7029    1.6671 C.3       1 <0>         0.0884
      5 H1          0.8324   -0.8367    2.3738 H         1 <0>         0.1078
      6 C4          2.9071   -0.2586    2.4200 C.3       1 <0>         0.0286
      7 O1          3.1974   -1.1971    3.4577 O.3       1 <0>        -0.3792
      8 C5          4.3581   -0.8736    4.2260 C.3       1 <0>         0.0294
      9 O2          1.9097   -1.9387    0.9977 O.3       1 <0>        -0.5273
     10 C6          0.0035   -0.7779   -1.1445 C.ar      1 <0>         0.4762
     11 C7          0.0434   -0.1650   -2.4278 C.ar      1 <0>        -0.1860
     12 C8          0.0846    1.2596   -2.7625 C.2       1 <0>        -0.0827
     13 C9          0.1179    1.5794   -4.0719 C.2       1 <0>        -0.1367
     14 S1          0.0971    0.0272   -4.9282 S.3       1 <0>         0.1023
     15 C10         0.0419   -1.0527   -3.5223 C.ar      1 <0>         0.1192
     16 N2          0.0043   -2.3598   -3.3501 N.ar      1 <0>        -0.4852
     17 C11        -0.0326   -2.8701   -2.1345 C.ar      1 <0>         0.3247
     18 N3         -0.0267   -2.0982   -1.0623 N.ar      1 <0>        -0.5125
     19 C12         0.1618    2.9527   -4.6700 C.3       1 <0>        -0.0423
     20 C13        -0.2121    3.9680   -3.5807 C.3       1 <0>        -0.1150
     21 C14         0.5936    3.6508   -2.3174 C.3       1 <0>        -0.1241
     22 C15         0.0899    2.3489   -1.6935 C.3       1 <0>        -0.0589
     23 H2         -1.4939    1.4502    0.2169 H         1 <0>         0.0477
     24 H3         -2.0634   -0.2348    0.2842 H         1 <0>         0.0595
     25 H4         -1.1857    0.4638    1.6661 H         1 <0>         0.0647
     26 H5          2.0495    0.4347   -0.1185 H         1 <0>         0.0695
     27 H6          1.1586    1.3264    1.1382 H         1 <0>         0.0882
     28 H7          3.7478   -0.2105    1.7279 H         1 <0>         0.0499
     29 H8          2.7395    0.7259    2.8569 H         1 <0>         0.0570
     30 H9          5.2289   -0.8383    3.5713 H         1 <0>         0.0407
     31 H10         4.2206    0.0981    4.7004 H         1 <0>         0.0411
     32 H11         4.5101   -1.6338    4.9922 H         1 <0>         0.0881
     33 H12         2.6284   -1.8937    0.3524 H         1 <0>         0.3611
     34 H13        -0.0632   -3.9428   -2.0128 H         1 <0>         0.2073
     35 H14         1.1668    3.1613   -5.0369 H         1 <0>         0.0887
     36 H15        -0.5505    3.0178   -5.4925 H         1 <0>         0.0868
     37 H16         0.0254    4.9753   -3.9226 H         1 <0>         0.0769
     38 H17        -1.2776    3.8948   -3.3628 H         1 <0>         0.0696
     39 H18         1.6470    3.5445   -2.5768 H         1 <0>         0.0658
     40 H19         0.4786    4.4641   -1.6008 H         1 <0>         0.0715
     41 H20        -0.9217    2.4930   -1.3139 H         1 <0>         0.0783
     42 H21         0.7500    2.0562   -0.8770 H         1 <0>         0.0823
@<TRIPOS>BOND
     1    1    2 1
     2    1   23 1
     3    1   24 1
     4    1   25 1
     5    2    3 1
     6    2   10 1
     7    3    4 1
     8    3   26 1
     9    3   27 1
    10    4    5 1
    11    4    6 1
    12    4    9 1
    13    6    7 1
    14    6   28 1
    15    6   29 1
    16    7    8 1
    17    8   30 1
    18    8   31 1
    19    8   32 1
    20    9   33 1
    21   10   18 ar
    22   10   11 ar
    23   11   15 ar
    24   11   12 1
    25   12   22 1
    26   12   13 2
    27   13   14 1
    28   13   19 1
    29   14   15 1
    30   15   16 ar
    31   16   17 ar
    32   17   18 ar
    33   17   34 1
    34   19   20 1
    35   19   35 1
    36   19   36 1
    37   20   21 1
    38   20   37 1
    39   20   38 1
    40   21   22 1
    41   21   39 1
    42   21   40 1
    43   22   41 1
    44   22   42 1
@<TRIPOS>MOLECULE
ZINC67176970
   50    52     0     0     0
SMALL
USER_CHARGES

@<TRIPOS>ATOM
      1 C1         -0.0186    1.5238    0.0104 C.3       1 <0>        -0.1256
      2 C2          1.4029    2.0777   -0.0002 C.3       1 <0>        -0.1237
      3 C3          2.3107    1.1461   -0.8089 C.3       1 <0>        -0.0380
      4 C4          2.8643    0.0832    0.1043 C.2       1 <0>         0.1806
      5 N1          4.1024   -0.3115    0.1934 N.2       1 <0>        -0.2922
      6 N2          4.1932   -1.2498    1.0704 N.2       1 <0>        -0.2902
      7 C5          3.0150   -1.4899    1.5823 C.2       1 <0>         0.1727
      8 N3          2.1438   -0.6431    0.9906 N.pl3     1 <0>        -0.4657
      9 C6          0.7108   -0.5178    1.2584 C.3       1 <0>         0.1028
     10 C7          0.0021   -0.0041    0.0020 C.3       1 <0>        -0.1418
     11 C8          2.6891   -2.5183    2.6345 C.3       1 <0>        -0.0279
     12 C9          2.8274   -1.8895    4.0224 C.3       1 <0>        -0.1257
     13 C10         2.4965   -2.9336    5.0907 C.3       1 <0>         0.1194
     14 N4          2.6289   -2.3315    6.4196 N.am      1 <0>        -0.7331
     15 C11         2.3848   -3.0690    7.5210 C.2       1 <0>         0.5169
     16 O1          2.0554   -4.2311    7.4118 O.2       1 <0>        -0.5360
     17 C12         2.5210   -2.4496    8.8880 C.3       1 <0>        -0.1057
     18 C13         3.9562   -1.9568    9.0839 C.3       1 <0>        -0.1106
     19 C14         4.0945   -1.3279   10.4718 C.3       1 <0>        -0.1184
     20 C15         3.7636   -2.3721   11.5401 C.3       1 <0>        -0.1235
     21 C16         2.3284   -2.8649   11.3442 C.3       1 <0>        -0.1206
     22 C17         2.1901   -3.4938    9.9563 C.3       1 <0>        -0.0999
     23 H1         -0.5336    1.8716    0.9060 H         1 <0>         0.0703
     24 H2         -0.5505    1.8811   -0.8713 H         1 <0>         0.0752
     25 H3          1.4030    3.0687   -0.4541 H         1 <0>         0.0824
     26 H4          1.7730    2.1472    1.0227 H         1 <0>         0.0642
     27 H5          1.7342    0.6773   -1.6064 H         1 <0>         0.0933
     28 H6          3.1311    1.7201   -1.2396 H         1 <0>         0.1013
     29 H7          0.3054   -1.4920    1.5318 H         1 <0>         0.0964
     30 H8          0.5539    0.1844    2.0771 H         1 <0>         0.0901
     31 H9         -1.0207   -0.3805   -0.0169 H         1 <0>         0.0900
     32 H10         0.5332   -0.3547   -0.8829 H         1 <0>         0.0818
     33 H11         1.6667   -2.8695    2.4949 H         1 <0>         0.0856
     34 H12         3.3772   -3.3590    2.5463 H         1 <0>         0.1055
     35 H13         3.8498   -1.5384    4.1620 H         1 <0>         0.0808
     36 H14         2.1393   -1.0488    4.1106 H         1 <0>         0.0681
     37 H15         1.4741   -3.2848    4.9511 H         1 <0>         0.0695
     38 H16         3.1846   -3.7743    5.0025 H         1 <0>         0.0732
     39 H17         2.8923   -1.4020    6.5069 H         1 <0>         0.4008
     40 H18         1.8329   -1.6089    8.9762 H         1 <0>         0.0967
     41 H19         4.6443   -2.7975    8.9957 H         1 <0>         0.0692
     42 H20         4.1919   -1.2129    8.3229 H         1 <0>         0.0654
     43 H21         5.1169   -0.9768   10.6114 H         1 <0>         0.0667
     44 H22         3.4064   -0.4872   10.5600 H         1 <0>         0.0643
     45 H23         4.4517   -3.2128   11.4519 H         1 <0>         0.0634
     46 H24         3.8621   -1.9241   12.5289 H         1 <0>         0.0637
     47 H25         2.0927   -3.6088   12.1053 H         1 <0>         0.0666
     48 H26         1.6403   -2.0242   11.4324 H         1 <0>         0.0623
     49 H27         1.1677   -3.8449    9.8167 H         1 <0>         0.0691
     50 H28         2.8782   -4.3345    9.8681 H         1 <0>         0.0703
@<TRIPOS>BOND
     1    1   10 1
     2    1    2 1
     3    1   23 1
     4    1   24 1
     5    2    3 1
     6    2   25 1
     7    2   26 1
     8    3    4 1
     9    3   27 1
    10    3   28 1
    11    4    8 1
    12    4    5 2
    13    5    6 1
    14    6    7 2
    15    7    8 1
    16    7   11 1
    17    8    9 1
    18    9   10 1
    19    9   29 1
    20    9   30 1
    21   10   31 1
    22   10   32 1
    23   11   12 1
    24   11   33 1
    25   11   34 1
    26   12   13 1
    27   12   35 1
    28   12   36 1
    29   13   14 1
    30   13   37 1
    31   13   38 1
    32   14   15 am
    33   14   39 1
    34   15   16 2
    35   15   17 1
    36   17   22 1
    37   17   18 1
    38   17   40 1
    39   18   19 1
    40   18   41 1
    41   18   42 1
    42   19   20 1
    43   19   43 1
    44   19   44 1
    45   20   21 1
    46   20   45 1
    47   20   46 1
    48   21   22 1
    49   21   47 1
    50   21   48 1
    51   22   49 1
    52   22   50 1
@<TRIPOS>MOLECULE
ZINC01992778
   48    50     0     0     0
SMALL
USER_CHARGES
1-[6-ethoxy-2-(p-tolyl)chromen-4-ylidene]aminopropan-2-ol
@<TRIPOS>ATOM
      1 C1         -3.9356    6.1287   12.6186 C.3       1 <0>        -0.1537
      2 C2         -3.2177    5.3763   11.4964 C.3       1 <0>         0.0524
      3 O1         -4.1127    5.1921   10.3978 O.3       1 <0>        -0.3105
      4 C3         -3.6281    4.5359    9.3101 C.ar      1 <0>         0.1085
      5 C4         -2.3149    4.0788    9.3033 C.ar      1 <0>        -0.1599
      6 C5         -1.8097    3.4121    8.2069 C.ar      1 <0>        -0.0941
      7 C6         -2.6142    3.1918    7.0966 C.ar      1 <0>         0.0961
      8 C7         -3.9381    3.6519    7.1031 C.ar      1 <0>        -0.0763
      9 C8         -4.4429    4.3231    8.2120 C.ar      1 <0>        -0.0735
     10 C9         -4.7758    3.4045    5.9065 C.2       1 <0>         0.2341
     11 N1         -6.0244    3.8106    5.8494 N.2       1 <0>        -0.5021
     12 C10        -6.7831    3.6730    4.6038 C.3       1 <0>         0.0413
     13 C11        -7.9263    2.6772    4.8103 C.3       1 <0>         0.1090
     14 H1         -7.5242    1.7342    5.1807 H         1 <0>         0.0511
     15 C12        -8.6417    2.4388    3.4790 C.3       1 <0>        -0.1870
     16 O2         -8.8528    3.2062    5.7609 O.3       1 <0>        -0.5528
     17 C13        -4.1715    2.7082    4.8197 C.2       1 <0>        -0.2857
     18 C14        -2.8816    2.3083    4.9211 C.2       1 <0>         0.1923
     19 O3         -2.1361    2.5358    6.0161 O.3       1 <0>        -0.2314
     20 C15        -2.2714    1.5878    3.7850 C.ar      1 <0>        -0.0701
     21 C16        -0.9437    1.1615    3.8567 C.ar      1 <0>        -0.0774
     22 C17        -0.3799    0.4896    2.7919 C.ar      1 <0>        -0.1231
     23 C18        -1.1269    0.2383    1.6546 C.ar      1 <0>        -0.0639
     24 C19        -2.4415    0.6626    1.5748 C.ar      1 <0>        -0.1218
     25 C20        -3.0195    1.3305    2.6344 C.ar      1 <0>        -0.0826
     26 C21        -0.5039   -0.4954    0.4950 C.3       1 <0>        -0.1212
     27 H2         -4.2651    7.1007   12.2515 H         1 <0>         0.0675
     28 H3         -4.8004    5.5523   12.9472 H         1 <0>         0.0675
     29 H4         -3.2529    6.2692   13.4566 H         1 <0>         0.0796
     30 H5         -2.8882    4.4043   11.8635 H         1 <0>         0.0635
     31 H6         -2.3529    5.9527   11.1678 H         1 <0>         0.0635
     32 H7         -1.6849    4.2478   10.1641 H         1 <0>         0.1425
     33 H8         -0.7882    3.0615    8.2117 H         1 <0>         0.1444
     34 H9         -5.4633    4.6771    8.2153 H         1 <0>         0.1530
     35 H10        -7.1925    4.6422    4.3188 H         1 <0>         0.0949
     36 H11        -6.1239    3.3109    3.8149 H         1 <0>         0.0610
     37 H12        -9.4561    1.7294    3.6261 H         1 <0>         0.0630
     38 H13        -9.0437    3.3818    3.1086 H         1 <0>         0.0672
     39 H14        -7.9349    2.0354    2.7539 H         1 <0>         0.0652
     40 H15        -9.6054    2.6264    5.9413 H         1 <0>         0.3743
     41 H16        -4.7373    2.5011    3.9234 H         1 <0>         0.1522
     42 H17        -0.3596    1.3569    4.7438 H         1 <0>         0.1347
     43 H18         0.6469    0.1593    2.8460 H         1 <0>         0.1305
     44 H19        -3.0175    0.4671    0.6824 H         1 <0>         0.1314
     45 H20        -4.0469    1.6575    2.5725 H         1 <0>         0.1296
     46 H21        -0.6622   -1.5670    0.6158 H         1 <0>         0.0759
     47 H22         0.5657   -0.2872    0.4657 H         1 <0>         0.0705
     48 H23        -0.9644   -0.1626   -0.4352 H         1 <0>         0.0703
@<TRIPOS>BOND
     1    1    2 1
     2    1   27 1
     3    1   28 1
     4    1   29 1
     5    2    3 1
     6    2   30 1
     7    2   31 1
     8    3    4 1
     9    4    9 ar
    10    4    5 ar
    11    5    6 ar
    12    5   32 1
    13    6    7 ar
    14    6   33 1
    15    7   19 1
    16    7    8 ar
    17    8    9 ar
    18    8   10 1
    19    9   34 1
    20   10   11 2
    21   10   17 1
    22   11   12 1
    23   12   13 1
    24   12   35 1
    25   12   36 1
    26   13   14 1
    27   13   15 1
    28   13   16 1
    29   15   37 1
    30   15   38 1
    31   15   39 1
    32   16   40 1
    33   17   18 2
    34   17   41 1
    35   18   19 1
    36   18   20 1
    37   20   25 ar
    38   20   21 ar
    39   21   22 ar
    40   21   42 1
    41   22   23 ar
    42   22   43 1
    43   23   24 ar
    44   23   26 1
    45   24   25 ar
    46   24   44 1
    47   25   45 1
    48   26   46 1
    49   26   47 1
    50   26   48 1
@<TRIPOS>MOLECULE
ZINC17849787
   45    48     0     0     0
SMALL
USER_CHARGES
3-methyl-N-(2-phenoxyethyl)benzo[g]benzofuran-2-carboxamide
@<TRIPOS>ATOM
      1 C1         -1.9688    8.4376    0.0606 C.3       1 <0>        -0.0979
      2 C2         -0.9701    7.3092    0.0463 C.2       1 <0>        -0.0616
      3 C3         -1.2629    5.9222    0.0430 C.ar      1 <0>        -0.1433
      4 C4         -2.4681    5.1900    0.0512 C.ar      1 <0>        -0.0579
      5 C5         -2.4560    3.8366    0.0447 C.ar      1 <0>        -0.1235
      6 C6         -1.2318    3.1347    0.0297 C.ar      1 <0>        -0.0205
      7 C7         -1.2071    1.7313    0.0172 C.ar      1 <0>        -0.1077
      8 C8         -0.0126    1.0758    0.0080 C.ar      1 <0>        -0.1030
      9 C9          1.1890    1.7784    0.0003 C.ar      1 <0>        -0.1168
     10 C10         1.2022    3.1411    0.0070 C.ar      1 <0>        -0.0965
     11 C11        -0.0094    3.8482    0.0218 C.ar      1 <0>        -0.0329
     12 C12        -0.0308    5.2600    0.0286 C.ar      1 <0>         0.0805
     13 O1          0.9368    6.1949    0.0236 O.3       1 <0>        -0.1629
     14 C13         0.3836    7.4263    0.0341 C.2       1 <0>        -0.0618
     15 C14         1.1276    8.6928    0.0331 C.2       1 <0>         0.6065
     16 O2          0.5273    9.7510    0.0437 O.2       1 <0>        -0.5111
     17 N1          2.4753    8.6827    0.0203 N.am      1 <0>        -0.7173
     18 C15         3.2173    9.9459    0.0193 C.3       1 <0>         0.1228
     19 C16         4.7194    9.6550    0.0037 C.3       1 <0>         0.0451
     20 O3          5.0672    9.0112   -1.2237 O.3       1 <0>        -0.3134
     21 C17         6.3740    8.6820   -1.3989 C.ar      1 <0>         0.1269
     22 C18         7.3034    8.9776   -0.4123 C.ar      1 <0>        -0.2095
     23 C19         8.6302    8.6363   -0.5902 C.ar      1 <0>        -0.0801
     24 C20         9.0342    8.0116   -1.7556 C.ar      1 <0>        -0.1568
     25 C21         8.1109    7.7210   -2.7429 C.ar      1 <0>        -0.0800
     26 C22         6.7819    8.0547   -2.5672 C.ar      1 <0>        -0.1509
     27 H1         -2.2000    8.7052    1.0917 H         1 <0>         0.0794
     28 H2         -1.5480    9.3018   -0.4535 H         1 <0>         0.0916
     29 H3         -2.8809    8.1220   -0.4461 H         1 <0>         0.0709
     30 H4         -3.4117    5.7153    0.0624 H         1 <0>         0.1327
     31 H5         -3.3880    3.2910    0.0507 H         1 <0>         0.1376
     32 H6         -2.1316    1.1730    0.0190 H         1 <0>         0.1350
     33 H7          0.0021   -0.0041    0.0020 H         1 <0>         0.1289
     34 H8          2.1232    1.2365   -0.0115 H         1 <0>         0.1286
     35 H9          2.1413    3.6744    0.0012 H         1 <0>         0.1301
     36 H10         2.9539    7.8391    0.0118 H         1 <0>         0.4097
     37 H11         2.9500   10.5236   -0.8655 H         1 <0>         0.0865
     38 H12         2.9667   10.5152    0.9143 H         1 <0>         0.0970
     39 H13         5.2716   10.5906    0.0925 H         1 <0>         0.0849
     40 H14         4.9719    9.0033    0.8402 H         1 <0>         0.0725
     41 H15         6.9891    9.4700    0.4961 H         1 <0>         0.1274
     42 H16         9.3533    8.8623    0.1795 H         1 <0>         0.1255
     43 H17        10.0727    7.7499   -1.8949 H         1 <0>         0.1247
     44 H18         8.4288    7.2323   -3.6520 H         1 <0>         0.1301
     45 H19         6.0611    7.8278   -3.3388 H         1 <0>         0.1305
@<TRIPOS>BOND
     1    1    2 1
     2    1   27 1
     3    1   28 1
     4    1   29 1
     5    2   14 2
     6    2    3 1
     7    3   12 ar
     8    3    4 ar
     9    4    5 ar
    10    4   30 1
    11    5    6 ar
    12    5   31 1
    13    6   11 ar
    14    6    7 ar
    15    7    8 ar
    16    7   32 1
    17    8    9 ar
    18    8   33 1
    19    9   10 ar
    20    9   34 1
    21   10   11 ar
    22   10   35 1
    23   11   12 ar
    24   12   13 1
    25   13   14 1
    26   14   15 1
    27   15   16 2
    28   15   17 am
    29   17   18 1
    30   17   36 1
    31   18   19 1
    32   18   37 1
    33   18   38 1
    34   19   20 1
    35   19   39 1
    36   19   40 1
    37   20   21 1
    38   21   26 ar
    39   21   22 ar
    40   22   23 ar
    41   22   41 1
    42   23   24 ar
    43   23   42 1
    44   24   25 ar
    45   24   43 1
    46   25   26 ar
    47   25   44 1
    48   26   45 1
@<TRIPOS>MOLECULE
ZINC37010440
   35    36     0     0     0
SMALL
USER_CHARGES

@<TRIPOS>ATOM
      1 C1          0.0829    1.4461   -0.2303 C.3       1 <0>        -0.1521
      2 C2          0.0303   -0.0713   -0.0420 C.3       1 <0>        -0.1274
      3 C3         -1.4232   -0.5124    0.1412 C.3       1 <0>         0.1928
      4 H1         -1.8721    0.0473    0.9618 H         1 <0>         0.0979
      5 C4         -1.4653   -1.9856    0.4558 C.ar      1 <0>        -0.1015
      6 C5         -1.3426   -2.9136   -0.5617 C.ar      1 <0>        -0.0495
      7 C6         -1.3811   -4.2647   -0.2731 C.ar      1 <0>        -0.1143
      8 C7         -1.5419   -4.6883    1.0331 C.ar      1 <0>        -0.0544
      9 C8         -1.6637   -3.7607    2.0504 C.ar      1 <0>        -0.0447
     10 C9         -1.6208   -2.4091    1.7623 C.ar      1 <0>        -0.0501
     11 N1         -1.8364   -4.2142    3.4487 N.pl3     1 <0>         0.0319
     12 O1         -1.8709   -5.3961    3.7010 O.2       1 <0>        -0.1555
     13 O2         -1.9429   -3.4027    4.3386 O.3       1 <0>        -0.1557
     14 N2         -2.1708   -0.2549   -1.0921 N.pl3     1 <0>        -0.7351
     15 C10        -3.5513   -0.0451   -1.0413 C.ar      1 <0>         0.2293
     16 C11        -4.2346   -0.1975    0.1584 C.ar      1 <0>        -0.1897
     17 C12        -5.5991    0.0105    0.2055 C.ar      1 <0>        -0.0417
     18 C13        -6.2855    0.3700   -0.9408 C.ar      1 <0>        -0.1445
     19 C14        -5.6075    0.5225   -2.1372 C.ar      1 <0>        -0.0420
     20 C15        -4.2420    0.3219   -2.1891 C.ar      1 <0>        -0.1862
     21 Br1        -8.1540    0.6527   -0.8724 Br        1 <0>        -0.0575
     22 H2          1.1225    1.7714   -0.2708 H         1 <0>         0.0611
     23 H3         -0.4182    1.7144   -1.1604 H         1 <0>         0.0585
     24 H4         -0.4180    1.9336    0.6061 H         1 <0>         0.0585
     25 H5          0.4507   -0.5613   -0.9203 H         1 <0>         0.0723
     26 H6          0.6080   -0.3483    0.8399 H         1 <0>         0.0821
     27 H7         -1.2169   -2.5827   -1.5820 H         1 <0>         0.1387
     28 H8         -1.2860   -4.9896   -1.0681 H         1 <0>         0.1485
     29 H9         -1.5728   -5.7441    1.2584 H         1 <0>         0.1543
     30 H10        -1.7122   -1.6843    2.5576 H         1 <0>         0.1531
     31 H11        -1.7075   -0.2301   -1.9439 H         1 <0>         0.4036
     32 H12        -3.6995   -0.4788    1.0533 H         1 <0>         0.1260
     33 H13        -6.1310   -0.1078    1.1380 H         1 <0>         0.1312
     34 H14        -6.1459    0.8028   -3.0305 H         1 <0>         0.1323
     35 H15        -3.7126    0.4454   -3.1223 H         1 <0>         0.1296
@<TRIPOS>BOND
     1    1    2 1
     2    1   22 1
     3    1   23 1
     4    1   24 1
     5    2    3 1
     6    2   25 1
     7    2   26 1
     8    3    4 1
     9    3    5 1
    10    3   14 1
    11    5   10 ar
    12    5    6 ar
    13    6    7 ar
    14    6   27 1
    15    7    8 ar
    16    7   28 1
    17    8    9 ar
    18    8   29 1
    19    9   10 ar
    20    9   11 1
    21   10   30 1
    22   11   12 2
    23   11   13 1
    24   14   15 1
    25   14   31 1
    26   15   20 ar
    27   15   16 ar
    28   16   17 ar
    29   16   32 1
    30   17   18 ar
    31   17   33 1
    32   18   19 ar
    33   18   21 1
    34   19   20 ar
    35   19   34 1
    36   20   35 1
@<TRIPOS>MOLECULE
ZINC41565874
   46    47     0     0     0
SMALL
USER_CHARGES

@<TRIPOS>ATOM
      1 C1         -0.0187    1.5258    0.0104 C.3       1 <0>        -0.1480
      2 C2          0.0021   -0.0041    0.0020 C.3       1 <0>        -0.0814
      3 C3         -1.4117   -0.5257    0.0127 C.ar      1 <0>        -0.1223
      4 C4         -2.0497   -0.7657    1.2157 C.ar      1 <0>        -0.0766
      5 C5         -3.3456   -1.2442    1.2282 C.ar      1 <0>        -0.1503
      6 C6         -4.0069   -1.4837    0.0324 C.ar      1 <0>         0.1273
      7 C7         -3.3647   -1.2416   -1.1733 C.ar      1 <0>        -0.2091
      8 C8         -2.0706   -0.7581   -1.1804 C.ar      1 <0>        -0.0764
      9 O1         -5.2816   -1.9549    0.0420 O.3       1 <0>        -0.2935
     10 C9         -5.9003   -2.1783   -1.2266 C.3       1 <0>         0.0683
     11 C10        -7.3213   -2.7045   -1.0154 C.3       1 <0>         0.0797
     12 O2         -8.1126   -1.6978   -0.3808 O.3       1 <0>        -0.3075
     13 C11        -9.4088   -2.0062   -0.1199 C.ar      1 <0>         0.1261
     14 C12       -10.3902   -1.7424   -1.0623 C.ar      1 <0>        -0.1076
     15 C13       -11.7087   -2.0571   -0.7959 C.ar      1 <0>        -0.0941
     16 C14       -12.0601   -2.6366    0.4116 C.ar      1 <0>        -0.1214
     17 C15       -11.0963   -2.9057    1.3602 C.ar      1 <0>        -0.0872
     18 C16        -9.7592   -2.5978    1.1009 C.ar      1 <0>        -0.0619
     19 C17        -8.7225   -2.8881    2.1088 C.2       1 <0>         0.1412
     20 N1         -7.4851   -2.5964    1.8669 N.2       1 <0>        -0.2800
     21 O3         -6.4897   -2.8751    2.8346 O.3       1 <0>        -0.4092
     22 C18        -9.1040   -3.5245    3.4205 C.3       1 <0>        -0.1444
     23 C19       -10.0185   -1.1111   -2.3792 C.3       1 <0>        -0.1144
     24 H1          1.0039    1.9031    0.0027 H         1 <0>         0.0573
     25 H2         -0.5459    1.8868   -0.8726 H         1 <0>         0.0545
     26 H3         -0.5289    1.8773    0.9072 H         1 <0>         0.0554
     27 H4          0.5123   -0.3556   -0.8948 H         1 <0>         0.0695
     28 H5          0.5293   -0.3651    0.8851 H         1 <0>         0.0706
     29 H6         -1.5345   -0.5791    2.1463 H         1 <0>         0.1274
     30 H7         -3.8432   -1.4322    2.1681 H         1 <0>         0.1277
     31 H8         -3.8774   -1.4273   -2.1056 H         1 <0>         0.1254
     32 H9         -1.5718   -0.5654   -2.1187 H         1 <0>         0.1224
     33 H10        -5.9386   -1.2412   -1.7821 H         1 <0>         0.0710
     34 H11        -5.3215   -2.9108   -1.7892 H         1 <0>         0.0781
     35 H12        -7.7617   -2.9587   -1.9795 H         1 <0>         0.0700
     36 H13        -7.2898   -3.5930   -0.3847 H         1 <0>         0.0641
     37 H14       -12.4698   -1.8496   -1.5335 H         1 <0>         0.1305
     38 H15       -13.0935   -2.8785    0.6114 H         1 <0>         0.1323
     39 H16       -11.3746   -3.3578    2.3007 H         1 <0>         0.1352
     40 H17        -5.5965   -2.6222    2.5642 H         1 <0>         0.4021
     41 H18        -9.0569   -4.6093    3.3253 H         1 <0>         0.0800
     42 H19        -8.4131   -3.1975    4.1975 H         1 <0>         0.0797
     43 H20       -10.1181   -3.2269    3.6873 H         1 <0>         0.0760
     44 H21        -9.7883   -1.8917   -3.1043 H         1 <0>         0.0693
     45 H22       -10.8531   -0.5118   -2.7432 H         1 <0>         0.0705
     46 H23        -9.1454   -0.4730   -2.2427 H         1 <0>         0.0741
@<TRIPOS>BOND
     1    1    2 1
     2    1   24 1
     3    1   25 1
     4    1   26 1
     5    2    3 1
     6    2   27 1
     7    2   28 1
     8    3    8 ar
     9    3    4 ar
    10    4    5 ar
    11    4   29 1
    12    5    6 ar
    13    5   30 1
    14    6    7 ar
    15    6    9 1
    16    7    8 ar
    17    7   31 1
    18    8   32 1
    19    9   10 1
    20   10   11 1
    21   10   33 1
    22   10   34 1
    23   11   12 1
    24   11   35 1
    25   11   36 1
    26   12   13 1
    27   13   18 ar
    28   13   14 ar
    29   14   15 ar
    30   14   23 1
    31   15   16 ar
    32   15   37 1
    33   16   17 ar
    34   16   38 1
    35   17   18 ar
    36   17   39 1
    37   18   19 1
    38   19   20 2
    39   19   22 1
    40   20   21 1
    41   21   40 1
    42   22   41 1
    43   22   42 1
    44   22   43 1
    45   23   44 1
    46   23   45 1
    47   23   46 1
@<TRIPOS>MOLECULE
ZINC67081556
   51    52     0     0     0
SMALL
USER_CHARGES

@<TRIPOS>ATOM
      1 C1         -0.0187    1.5258    0.0104 C.3       1 <0>        -0.1455
      2 C2          0.0021   -0.0041    0.0020 C.3       1 <0>        -0.0684
      3 H1          0.5293   -0.3651    0.8851 H         1 <0>         0.0830
      4 C3         -1.4333   -0.5336    0.0129 C.3       1 <0>         0.1431
      5 N1         -2.0815   -0.1618    1.2729 N.am      1 <0>        -0.6295
      6 C4         -2.8087    1.1058    1.3764 C.3       1 <0>         0.0725
      7 C5         -2.0089   -0.9858    2.3370 C.2       1 <0>         0.7071
      8 O1         -1.4054   -2.0378    2.2511 O.2       1 <0>        -0.5842
      9 N2         -2.6052   -0.6437    3.4962 N.am      1 <0>        -0.7393
     10 C6         -2.5262   -1.5394    4.6528 C.3       1 <0>         0.2159
     11 C7         -3.2693   -0.9285    5.8129 C.2       1 <0>         0.0440
     12 C8         -4.5610   -1.2516    6.0778 C.2       1 <0>        -0.2166
     13 S1         -4.8648   -0.2396    7.5173 S.3       1 <0>         0.1144
     14 C9         -3.3433    0.4722    7.6245 C.2       1 <0>         0.0720
     15 N3         -2.6931   -0.0602    6.6200 N.2       1 <0>        -0.5040
     16 C10        -2.8478    1.4746    8.6348 C.3       1 <0>         0.0226
     17 C11        -2.4211    2.7556    7.9152 C.3       1 <0>        -0.1352
     18 C12        -3.9678    1.7955    9.6265 C.3       1 <0>        -0.1537
     19 C13        -1.6513    0.8903    9.3884 C.3       1 <0>        -0.1362
     20 C14         0.7074   -0.4901   -1.2379 C.ar      1 <0>        -0.0741
     21 C15         0.2220   -0.1511   -2.4870 C.ar      1 <0>        -0.1167
     22 C16         0.8690   -0.5969   -3.6243 C.ar      1 <0>        -0.1187
     23 C17         2.0018   -1.3813   -3.5125 C.ar      1 <0>        -0.1238
     24 C18         2.4878   -1.7195   -2.2634 C.ar      1 <0>        -0.1174
     25 C19         1.8432   -1.2701   -1.1261 C.ar      1 <0>        -0.1120
     26 H2          1.0039    1.9031    0.0027 H         1 <0>         0.0570
     27 H3         -0.5459    1.8868   -0.8726 H         1 <0>         0.0570
     28 H4         -0.5289    1.8773    0.9072 H         1 <0>         0.0603
     29 H5         -1.9862   -0.1019   -0.8214 H         1 <0>         0.0785
     30 H6         -1.4207   -1.6194   -0.0826 H         1 <0>         0.0876
     31 H7         -3.8508    0.9507    1.0973 H         1 <0>         0.0567
     32 H8         -2.7577    1.4712    2.4021 H         1 <0>         0.0646
     33 H9         -2.3584    1.8387    0.7068 H         1 <0>         0.0812
     34 H10        -3.0866    0.1956    3.5647 H         1 <0>         0.3965
     35 H11        -2.9745   -2.5001    4.3996 H         1 <0>         0.0839
     36 H12        -1.4818   -1.6869    4.9275 H         1 <0>         0.0824
     37 H13        -5.2217   -1.9321    5.5612 H         1 <0>         0.1978
     38 H14        -3.2735    3.1719    7.3783 H         1 <0>         0.0568
     39 H15        -2.0627    3.4806    8.6459 H         1 <0>         0.0694
     40 H16        -1.6232    2.5269    7.2087 H         1 <0>         0.0664
     41 H17        -4.2717    0.8829   10.1391 H         1 <0>         0.0641
     42 H18        -3.6093    2.5206   10.3572 H         1 <0>         0.0777
     43 H19        -4.8202    2.2118    9.0896 H         1 <0>         0.0637
     44 H20        -0.8534    0.6616    8.6819 H         1 <0>         0.0671
     45 H21        -1.2928    1.6153   10.1191 H         1 <0>         0.0693
     46 H22        -1.9552   -0.0224    9.9010 H         1 <0>         0.0576
     47 H23        -0.6631    0.4617   -2.5743 H         1 <0>         0.1200
     48 H24         0.4893   -0.3327   -4.6002 H         1 <0>         0.1213
     49 H25         2.5069   -1.7302   -4.4011 H         1 <0>         0.1208
     50 H26         3.3726   -2.3325   -2.1760 H         1 <0>         0.1217
     51 H27         2.2251   -1.5312   -0.1501 H         1 <0>         0.1211
@<TRIPOS>BOND
     1    1    2 1
     2    1   26 1
     3    1   27 1
     4    1   28 1
     5    2    3 1
     6    2    4 1
     7    2   20 1
     8    4    5 1
     9    4   29 1
    10    4   30 1
    11    5    6 1
    12    5    7 am
    13    6   31 1
    14    6   32 1
    15    6   33 1
    16    7    8 2
    17    7    9 am
    18    9   10 1
    19    9   34 1
    20   10   11 1
    21   10   35 1
    22   10   36 1
    23   11   15 1
    24   11   12 2
    25   12   13 1
    26   12   37 1
    27   13   14 1
    28   14   15 2
    29   14   16 1
    30   16   17 1
    31   16   18 1
    32   16   19 1
    33   17   38 1
    34   17   39 1
    35   17   40 1
    36   18   41 1
    37   18   42 1
    38   18   43 1
    39   19   44 1
    40   19   45 1
    41   19   46 1
    42   20   25 ar
    43   20   21 ar
    44   21   22 ar
    45   21   47 1
    46   22   23 ar
    47   22   48 1
    48   23   24 ar
    49   23   49 1
    50   24   25 ar
    51   24   50 1
    52   25   51 1
@<TRIPOS>MOLECULE
ZINC07319748
   37    40     0     0     0
SMALL
USER_CHARGES
[5-(2-thienyl)isoxazol-3-yl]methyl 1-oxo-2H-isoquinoline-3-carboxylate
@<TRIPOS>ATOM
      1 C1          0.0314    4.2418    0.0254 C.ar      1 <0>        -0.0858
      2 C2         -1.1786    3.5613    0.0333 C.ar      1 <0>        -0.1187
      3 C3         -1.2118    2.1827    0.0311 C.ar      1 <0>        -0.0531
      4 C4         -0.0179    1.4659    0.0101 C.ar      1 <0>        -0.1333
      5 C5          1.2153    2.1579    0.0020 C.ar      1 <0>        -0.0221
      6 C6          1.2252    3.5539    0.0099 C.ar      1 <0>        -0.1052
      7 C7          2.4531    1.3786   -0.0149 C.2       1 <0>        -0.0865
      8 C8          2.3870    0.0234   -0.0210 C.2       1 <0>         0.1020
      9 N1          1.1843   -0.6503   -0.0127 N.am      1 <0>        -0.6283
     10 H1          1.1894   -1.6503   -0.0177 H         1 <0>         0.4280
     11 C9          0.0021   -0.0041    0.0020 C.2       1 <0>         0.5534
     12 O1         -1.0408   -0.6321    0.0082 O.2       1 <0>        -0.5163
     13 C10         3.6393   -0.7522   -0.0376 C.2       1 <0>         0.5151
     14 O2          4.7100   -0.1773   -0.0451 O.2       1 <0>        -0.4744
     15 O3          3.5977   -2.0996   -0.0444 O.3       1 <0>        -0.3511
     16 C11         4.8704   -2.7983   -0.0608 C.3       1 <0>         0.1570
     17 C12         4.6269   -4.2855   -0.0664 C.2       1 <0>         0.0154
     18 C13         3.3768   -4.9329   -0.0517 C.2       1 <0>        -0.1954
     19 C14         3.6974   -6.2675   -0.0673 C.2       1 <0>         0.0641
     20 O4          5.0421   -6.3275   -0.0807 O.3       1 <0>         0.1243
     21 N2          5.5330   -5.2228   -0.0799 N.2       1 <0>        -0.3424
     22 C15         2.7618   -7.4015   -0.0639 C.2       1 <0>        -0.1246
     23 C16         3.0348   -8.7571   -0.0786 C.2       1 <0>        -0.1114
     24 C17         1.9783   -9.6375   -0.0677 C.2       1 <0>        -0.1625
     25 C18         0.7089   -9.1527   -0.0537 C.2       1 <0>        -0.1593
     26 S1          0.9765   -7.3878   -0.0475 S.3       1 <0>         0.1187
     27 H2          0.0370    5.3218    0.0311 H         1 <0>         0.1354
     28 H3         -2.1042    4.1178    0.0455 H         1 <0>         0.1359
     29 H4         -2.1580    1.6621    0.0413 H         1 <0>         0.1424
     30 H5          2.1622    4.0910    0.0042 H         1 <0>         0.1399
     31 H6          3.4109    1.8775   -0.0217 H         1 <0>         0.1674
     32 H7          5.4274   -2.5180   -0.9549 H         1 <0>         0.1042
     33 H8          5.4450   -2.5275    0.8250 H         1 <0>         0.1042
     34 H9          2.3947   -4.4841   -0.0341 H         1 <0>         0.1800
     35 H10         4.0533   -9.1158   -0.0952 H         1 <0>         0.1443
     36 H11         2.1555  -10.7028   -0.0748 H         1 <0>         0.1438
     37 H12        -0.2241   -9.6966   -0.0479 H         1 <0>         0.1948
@<TRIPOS>BOND
     1    1    6 ar
     2    1    2 ar
     3    1   27 1
     4    2    3 ar
     5    2   28 1
     6    3    4 ar
     7    3   29 1
     8    4   11 1
     9    4    5 ar
    10    5    6 ar
    11    5    7 1
    12    6   30 1
    13    7    8 2
    14    7   31 1
    15    8    9 1
    16    8   13 1
    17    9   10 1
    18    9   11 am
    19   11   12 2
    20   13   14 2
    21   13   15 1
    22   15   16 1
    23   16   17 1
    24   16   32 1
    25   16   33 1
    26   17   21 2
    27   17   18 1
    28   18   19 2
    29   18   34 1
    30   19   20 1
    31   19   22 1
    32   20   21 1
    33   22   26 1
    34   22   23 2
    35   23   24 1
    36   23   35 1
    37   24   25 2
    38   24   36 1
    39   25   26 1
    40   25   37 1
@<TRIPOS>MOLECULE
ZINC33276324
   41    43     0     0     0
SMALL
USER_CHARGES
N-[4-[5-(p-tolylmethyl)-1,2,4-oxadiazol-3-yl]phenyl]methanesulfonamide
@<TRIPOS>ATOM
      1 C1         -2.4270    3.9782   -5.7908 C.3       1 <0>        -0.1215
      2 C2         -2.0685    3.7080   -4.3523 C.ar      1 <0>        -0.0755
      3 C3         -2.6800    2.6727   -3.6703 C.ar      1 <0>        -0.1215
      4 C4         -2.3505    2.4242   -2.3510 C.ar      1 <0>        -0.0994
      5 C5         -1.4091    3.2108   -1.7138 C.ar      1 <0>        -0.1072
      6 C6         -0.8015    4.2494   -2.3941 C.ar      1 <0>        -0.0931
      7 C7         -1.1278    4.4951   -3.7148 C.ar      1 <0>        -0.1227
      8 C8         -1.0499    2.9399   -0.2755 C.3       1 <0>         0.0124
      9 C9          0.0968    1.9636   -0.2195 C.2       1 <0>         0.1942
     10 N1          1.3722    2.2613   -0.2156 N.2       1 <0>        -0.4701
     11 C10         2.0217    1.0761   -0.1632 C.2       1 <0>         0.2101
     12 N2          1.1106    0.1375   -0.1386 N.2       1 <0>        -0.3712
     13 O1          0.0032    0.6311   -0.1703 O.3       1 <0>         0.0863
     14 C11         3.4912    0.8776   -0.1383 C.ar      1 <0>        -0.0160
     15 C12         4.3451    1.9793   -0.1751 C.ar      1 <0>        -0.0687
     16 C13         5.7103    1.7929   -0.1471 C.ar      1 <0>        -0.1226
     17 C14         6.2365    0.5068   -0.0933 C.ar      1 <0>         0.1447
     18 C15         5.3866   -0.5934   -0.0614 C.ar      1 <0>        -0.1046
     19 C16         4.0208   -0.4111   -0.0839 C.ar      1 <0>        -0.0739
     20 N3          7.6181    0.3202   -0.0708 N.pl3     1 <0>        -1.0805
     21 S1          8.4048   -0.2052   -1.4300 S.o2      1 <0>         2.6115
     22 O2          9.7714   -0.2871   -1.0491 O.2       1 <0>        -0.9534
     23 O3          7.6944   -1.3678   -1.8335 O.2       1 <0>        -0.9499
     24 C17         8.1733    1.1217   -2.6450 C.3       1 <0>        -0.6746
     25 H1         -3.1867    3.2547   -6.1214 H         1 <0>         0.0673
     26 H2         -1.5285    3.8786   -6.4175 H         1 <0>         0.0716
     27 H3         -2.8275    4.9985   -5.8834 H         1 <0>         0.0727
     28 H4         -3.4149    2.0577   -4.1684 H         1 <0>         0.1256
     29 H5         -2.8282    1.6153   -1.8182 H         1 <0>         0.1277
     30 H6         -0.0692    4.8667   -1.8950 H         1 <0>         0.1273
     31 H7         -0.6498    5.3038   -4.2476 H         1 <0>         0.1248
     32 H8         -0.7547    3.8807    0.2121 H         1 <0>         0.1233
     33 H9         -1.9199    2.5140    0.2458 H         1 <0>         0.1160
     34 H10         3.9369    2.9781   -0.2218 H         1 <0>         0.1419
     35 H11         6.3720    2.6461   -0.1714 H         1 <0>         0.1386
     36 H12         5.7972   -1.5914   -0.0192 H         1 <0>         0.1445
     37 H13         3.3611   -1.2658   -0.0599 H         1 <0>         0.1381
     38 H14         8.1855    0.5220    0.8497 H         1 <0>         0.4541
     39 H15         8.6715    0.8476   -3.5866 H         1 <0>         0.1331
     40 H16         8.6095    2.0541   -2.2572 H         1 <0>         0.1318
     41 H17         7.0985    1.2680   -2.8279 H         1 <0>         0.1290
@<TRIPOS>BOND
     1    1    2 1
     2    1   25 1
     3    1   26 1
     4    1   27 1
     5    2    7 ar
     6    2    3 ar
     7    3    4 ar
     8    3   28 1
     9    4    5 ar
    10    4   29 1
    11    5    6 ar
    12    5    8 1
    13    6    7 ar
    14    6   30 1
    15    7   31 1
    16    8    9 1
    17    8   32 1
    18    8   33 1
    19    9   13 1
    20    9   10 2
    21   10   11 1
    22   11   12 2
    23   11   14 1
    24   12   13 1
    25   14   19 ar
    26   14   15 ar
    27   15   16 ar
    28   15   34 1
    29   16   17 ar
    30   16   35 1
    31   17   18 ar
    32   17   20 1
    33   18   19 ar
    34   18   36 1
    35   19   37 1
    36   20   21 1
    37   20   38 1
    38   21   22 2
    39   21   23 2
    40   21   24 1
    41   24   39 1
    42   24   40 1
    43   24   41 1
@<TRIPOS>MOLECULE
ZINC40891187
   43    45     0     0     0
SMALL
USER_CHARGES

@<TRIPOS>ATOM
      1 C1          0.0941    1.3467    0.2286 C.3       1 <0>        -0.1625
      2 C2          0.0932   -0.1785    0.1068 C.3       1 <0>         0.1351
      3 C3          0.8633   -0.7845    1.2817 C.3       1 <0>        -0.1647
      4 N1         -1.2873   -0.6688    0.1229 N.am      1 <0>        -0.7160
      5 C4         -1.5902   -1.8483   -0.4545 C.2       1 <0>         0.5803
      6 O1         -0.7175   -2.5057   -0.9890 O.2       1 <0>        -0.5349
      7 C5         -2.9771   -2.3409   -0.4384 C.2       1 <0>        -0.2746
      8 C6         -3.3189   -3.5561   -1.0204 C.2       1 <0>         0.0807
      9 C7         -4.6792   -3.9491   -0.9937 C.ar      1 <0>        -0.1658
     10 C8         -5.0526   -5.2455   -1.3830 C.ar      1 <0>        -0.0209
     11 C9         -6.3597   -5.6251   -1.3130 C.ar      1 <0>        -0.1478
     12 C10        -7.3332   -4.7327   -0.8646 C.ar      1 <0>         0.1600
     13 C11        -6.9873   -3.4426   -0.4945 C.ar      1 <0>        -0.1362
     14 C12        -5.6643   -3.0369   -0.5662 C.ar      1 <0>         0.1694
     15 O2         -5.3204   -1.7653   -0.2485 O.3       1 <0>        -0.2664
     16 C13        -4.0567   -1.5683    0.2007 C.2       1 <0>         0.5269
     17 O3         -3.8203   -0.7792    1.0964 O.2       1 <0>        -0.4338
     18 O4         -8.6287   -5.1303   -0.7904 O.3       1 <0>        -0.2895
     19 C14        -8.9582   -6.0415    0.1462 C.2       1 <0>         0.5138
     20 O5         -8.1311   -6.4034    0.9590 O.2       1 <0>        -0.4786
     21 C15       -10.3251   -6.5999    0.1847 C.ar      1 <0>        -0.1298
     22 C16       -11.2766   -6.1903   -0.7516 C.ar      1 <0>        -0.0600
     23 C17       -12.5512   -6.7163   -0.7103 C.ar      1 <0>        -0.1319
     24 C18       -12.8876   -7.6477    0.2561 C.ar      1 <0>        -0.0769
     25 C19       -11.9498   -8.0577    1.1872 C.ar      1 <0>        -0.1300
     26 C20       -10.6699   -7.5442    1.1539 C.ar      1 <0>        -0.0505
     27 H1          1.1212    1.7115    0.2167 H         1 <0>         0.0760
     28 H2         -0.4546    1.7784   -0.6084 H         1 <0>         0.0621
     29 H3         -0.3836    1.6367    1.1645 H         1 <0>         0.0630
     30 H4          0.5709   -0.4685   -0.8291 H         1 <0>         0.0907
     31 H5          0.8627   -1.8710    1.1949 H         1 <0>         0.0609
     32 H6          1.8904   -0.4196    1.2697 H         1 <0>         0.0682
     33 H7          0.3857   -0.4944    2.2176 H         1 <0>         0.0584
     34 H8         -1.9832   -0.1445    0.5491 H         1 <0>         0.4091
     35 H9         -2.5687   -4.1823   -1.4802 H         1 <0>         0.1705
     36 H10        -4.3056   -5.9403   -1.7374 H         1 <0>         0.1559
     37 H11        -6.6440   -6.6246   -1.6074 H         1 <0>         0.1455
     38 H12        -7.7467   -2.7555   -0.1516 H         1 <0>         0.1585
     39 H13       -11.0154   -5.4632   -1.5062 H         1 <0>         0.1405
     40 H14       -13.2882   -6.4002   -1.4336 H         1 <0>         0.1355
     41 H15       -13.8869   -8.0564    0.2839 H         1 <0>         0.1332
     42 H16       -12.2192   -8.7845    1.9392 H         1 <0>         0.1367
     43 H17        -9.9375   -7.8686    1.8782 H         1 <0>         0.1399
@<TRIPOS>BOND
     1    1    2 1
     2    1   27 1
     3    1   28 1
     4    1   29 1
     5    2    3 1
     6    2    4 1
     7    2   30 1
     8    3   31 1
     9    3   32 1
    10    3   33 1
    11    4    5 am
    12    4   34 1
    13    5    6 2
    14    5    7 1
    15    7   16 1
    16    7    8 2
    17    8    9 1
    18    8   35 1
    19    9   14 ar
    20    9   10 ar
    21   10   11 ar
    22   10   36 1
    23   11   12 ar
    24   11   37 1
    25   12   13 ar
    26   12   18 1
    27   13   14 ar
    28   13   38 1
    29   14   15 1
    30   15   16 1
    31   16   17 2
    32   18   19 1
    33   19   20 2
    34   19   21 1
    35   21   26 ar
    36   21   22 ar
    37   22   23 ar
    38   22   39 1
    39   23   24 ar
    40   23   40 1
    41   24   25 ar
    42   24   41 1
    43   25   26 ar
    44   25   42 1
    45   26   43 1
@<TRIPOS>MOLECULE
ZINC39853924
   45    47     0     0     0
SMALL
USER_CHARGES

@<TRIPOS>ATOM
      1 C1         -0.0187    1.5258    0.0104 C.3       1 <0>        -0.1526
      2 C2          0.0021   -0.0041    0.0020 C.3       1 <0>         0.0527
      3 O1         -1.3386   -0.4987    0.0122 O.3       1 <0>        -0.3037
      4 C3         -1.4984   -1.8492    0.0064 C.ar      1 <0>         0.1137
      5 C4         -0.3893   -2.6797   -0.0028 C.ar      1 <0>        -0.1760
      6 C5         -0.5535   -4.0523   -0.0082 C.ar      1 <0>        -0.0936
      7 C6         -1.8231   -4.5996   -0.0047 C.ar      1 <0>        -0.1189
      8 C7         -2.9339   -3.7768    0.0040 C.ar      1 <0>        -0.1488
      9 C8         -2.7762   -2.4001    0.0157 C.ar      1 <0>         0.0983
     10 O2         -3.8679   -1.5893    0.0304 O.3       1 <0>        -0.3052
     11 C9         -5.1479   -2.2246    0.0392 C.3       1 <0>         0.0254
     12 C10        -1.9964   -6.0966   -0.0111 C.3       1 <0>         0.1580
     13 N1         -2.0460   -6.5883    1.3681 N.am      1 <0>        -0.5406
     14 C11        -0.9291   -6.9783    2.1010 C.ar      1 <0>         0.1708
     15 C12         0.4218   -7.0132    1.7732 C.ar      1 <0>        -0.1354
     16 C13         1.3486   -7.4515    2.6978 C.ar      1 <0>        -0.0613
     17 C14         0.9478   -7.8608    3.9582 C.ar      1 <0>        -0.1113
     18 C15        -0.3895   -7.8330    4.3015 C.ar      1 <0>        -0.0326
     19 C16        -1.3297   -7.3928    3.3772 C.ar      1 <0>        -0.1070
     20 C17        -2.8040   -7.2433    3.4236 C.2       1 <0>         0.1200
     21 N2         -3.5987   -7.5125    4.4196 N.2       1 <0>        -0.2386
     22 O3         -4.9936   -7.3077    4.2878 O.3       1 <0>        -0.3671
     23 C18        -3.1752   -6.7139    2.0860 C.2       1 <0>         0.5401
     24 O4         -4.2987   -6.4452    1.7079 O.2       1 <0>        -0.4659
     25 C19         1.9716   -8.3376    4.9560 C.3       1 <0>        -0.1125
     26 H1          1.0039    1.9031    0.0027 H         1 <0>         0.0794
     27 H2         -0.5459    1.8868   -0.8726 H         1 <0>         0.0672
     28 H3         -0.5289    1.8773    0.9072 H         1 <0>         0.0669
     29 H4          0.5123   -0.3556   -0.8948 H         1 <0>         0.0625
     30 H5          0.5293   -0.3651    0.8851 H         1 <0>         0.0618
     31 H6          0.6036   -2.2546   -0.0062 H         1 <0>         0.1380
     32 H7          0.3118   -4.6985   -0.0154 H         1 <0>         0.1282
     33 H8         -3.9246   -4.2069    0.0063 H         1 <0>         0.1393
     34 H9         -5.9301   -1.4656    0.0507 H         1 <0>         0.1026
     35 H10        -5.2534   -2.8416   -0.8531 H         1 <0>         0.0558
     36 H11        -5.2364   -2.8511    0.9267 H         1 <0>         0.0560
     37 H12        -2.9247   -6.3527   -0.5217 H         1 <0>         0.1020
     38 H13        -1.1566   -6.5574   -0.5311 H         1 <0>         0.1024
     39 H14         0.7467   -6.6971    0.7929 H         1 <0>         0.1334
     40 H15         2.3959   -7.4757    2.4353 H         1 <0>         0.1372
     41 H16        -0.7036   -8.1517    5.2844 H         1 <0>         0.1362
     42 H17        -5.5010   -7.5354    5.0788 H         1 <0>         0.4114
     43 H18         2.3279   -7.4914    5.5435 H         1 <0>         0.0728
     44 H19         1.5175   -9.0744    5.6185 H         1 <0>         0.0689
     45 H20         2.8099   -8.7917    4.4276 H         1 <0>         0.0700
@<TRIPOS>BOND
     1    1    2 1
     2    1   26 1
     3    1   27 1
     4    1   28 1
     5    2    3 1
     6    2   29 1
     7    2   30 1
     8    3    4 1
     9    4    9 ar
    10    4    5 ar
    11    5    6 ar
    12    5   31 1
    13    6    7 ar
    14    6   32 1
    15    7    8 ar
    16    7   12 1
    17    8    9 ar
    18    8   33 1
    19    9   10 1
    20   10   11 1
    21   11   34 1
    22   11   35 1
    23   11   36 1
    24   12   13 1
    25   12   37 1
    26   12   38 1
    27   13   23 am
    28   13   14 1
    29   14   19 ar
    30   14   15 ar
    31   15   16 ar
    32   15   39 1
    33   16   17 ar
    34   16   40 1
    35   17   18 ar
    36   17   25 1
    37   18   19 ar
    38   18   41 1
    39   19   20 1
    40   20   21 2
    41   20   23 1
    42   21   22 1
    43   22   42 1
    44   23   24 2
    45   25   43 1
    46   25   44 1
    47   25   45 1
@<TRIPOS>MOLECULE
ZINC66664725
   57    58     0     0     0
SMALL
USER_CHARGES

@<TRIPOS>ATOM
      1 C1         -0.0184    1.5028    0.0103 C.3       1 <0>        -0.0807
      2 C2          0.0021   -0.0041    0.0020 C.2       1 <0>         0.1040
      3 C3          0.0081   -0.8287   -1.1470 C.2       1 <0>        -0.2501
      4 C4          0.0279   -2.1396   -0.7072 C.2       1 <0>         0.1192
      5 N1          0.0336   -2.1117    0.6366 N.pl3     1 <0>        -0.3622
      6 N2          0.0230   -0.7760    1.0533 N.2       1 <0>        -0.2976
      7 C5          0.0534   -3.2827    1.5168 C.3       1 <0>         0.0956
      8 C6          0.0402   -3.3720   -1.5744 C.3       1 <0>        -0.0991
      9 C7         -0.0048   -0.3773   -2.5456 C.2       1 <0>         0.0677
     10 C8         -0.9152    0.5336   -2.9529 C.2       1 <0>        -0.2435
     11 C9         -0.9276    0.9690   -4.3020 C.2       1 <0>         0.5613
     12 O1         -0.1176    0.5219   -5.0936 O.2       1 <0>        -0.5143
     13 N3         -1.8361    1.8779   -4.7084 N.am      1 <0>        -0.6498
     14 C10        -1.8483    2.3059   -6.0346 C.2       1 <0>         0.3068
     15 C11        -1.0102    1.8888   -7.0233 C.2       1 <0>        -0.2703
     16 C12        -1.3615    2.5631   -8.1956 C.2       1 <0>         0.0961
     17 N4         -2.3686    3.3553   -7.9315 N.2       1 <0>        -0.2798
     18 N5         -2.7020    3.2112   -6.5787 N.pl3     1 <0>        -0.3814
     19 C13        -3.7777    3.9143   -5.8753 C.3       1 <0>         0.1784
     20 C14        -3.1851    4.7379   -4.7302 C.3       1 <0>        -0.1637
     21 C15        -4.5022    4.8442   -6.8506 C.3       1 <0>        -0.1387
     22 C16        -4.7692    2.8951   -5.3105 C.3       1 <0>        -0.1635
     23 C17        -0.6930    2.4050   -9.5370 C.3       1 <0>         0.0139
     24 C18        -1.1207    1.0777  -10.1666 C.3       1 <0>        -0.1361
     25 C19        -1.1057    3.5598  -10.4517 C.3       1 <0>        -0.1354
     26 C20         0.8260    2.4168   -9.3543 C.3       1 <0>        -0.1373
     27 H1          1.0042    1.8801    0.0026 H         1 <0>         0.0815
     28 H2         -0.5455    1.8639   -0.8728 H         1 <0>         0.0802
     29 H3         -0.5286    1.8543    0.9071 H         1 <0>         0.0775
     30 H4          1.0859   -3.5591    1.7304 H         1 <0>         0.0800
     31 H5         -0.4595   -3.0453    2.4488 H         1 <0>         0.0934
     32 H6         -0.4514   -4.1147    1.0259 H         1 <0>         0.0906
     33 H7          1.0708   -3.6553   -1.7885 H         1 <0>         0.0891
     34 H8         -0.4601   -4.1881   -1.0532 H         1 <0>         0.0761
     35 H9         -0.4810   -3.1639   -2.5088 H         1 <0>         0.0906
     36 H10         0.7137   -0.7738   -3.2477 H         1 <0>         0.1363
     37 H11        -1.6337    0.9301   -2.2508 H         1 <0>         0.1283
     38 H12        -2.4814    2.2341   -4.0779 H         1 <0>         0.4082
     39 H13        -0.2150    1.1654   -6.9197 H         1 <0>         0.1709
     40 H14        -2.4787    5.4641   -5.1325 H         1 <0>         0.0699
     41 H15        -3.9854    5.2611   -4.2068 H         1 <0>         0.0835
     42 H16        -2.6689    4.0755   -4.0353 H         1 <0>         0.0563
     43 H17        -4.9244    4.2575   -7.6664 H         1 <0>         0.0694
     44 H18        -5.3026    5.3674   -6.3272 H         1 <0>         0.0717
     45 H19        -3.7959    5.5704   -7.2529 H         1 <0>         0.0697
     46 H20        -4.2530    2.2326   -4.6156 H         1 <0>         0.0561
     47 H21        -5.5695    3.4182   -4.7871 H         1 <0>         0.0835
     48 H22        -5.1914    2.3083   -6.1263 H         1 <0>         0.0696
     49 H23        -2.2029    1.0693  -10.2967 H         1 <0>         0.0547
     50 H24        -0.6372    0.9634  -11.1368 H         1 <0>         0.0624
     51 H25        -0.8267    0.2550   -9.5149 H         1 <0>         0.0598
     52 H26        -0.8011    4.5054  -10.0032 H         1 <0>         0.0553
     53 H27        -0.6222    3.4455  -11.4219 H         1 <0>         0.0570
     54 H28        -2.1879    3.5514  -10.5818 H         1 <0>         0.0598
     55 H29         1.1200    1.5940   -8.7026 H         1 <0>         0.0622
     56 H30         1.3095    2.3024  -10.3245 H         1 <0>         0.0614
     57 H31         1.1307    3.3623   -8.9058 H         1 <0>         0.0554
@<TRIPOS>BOND
     1    1    2 1
     2    1   27 1
     3    1   28 1
     4    1   29 1
     5    2    6 2
     6    2    3 1
     7    3    4 2
     8    3    9 1
     9    4    5 1
    10    4    8 1
    11    5    6 1
    12    5    7 1
    13    7   30 1
    14    7   31 1
    15    7   32 1
    16    8   33 1
    17    8   34 1
    18    8   35 1
    19    9   10 2
    20    9   36 1
    21   10   11 1
    22   10   37 1
    23   11   12 2
    24   11   13 am
    25   13   14 1
    26   13   38 1
    27   14   18 1
    28   14   15 2
    29   15   16 1
    30   15   39 1
    31   16   17 2
    32   16   23 1
    33   17   18 1
    34   18   19 1
    35   19   20 1
    36   19   21 1
    37   19   22 1
    38   20   40 1
    39   20   41 1
    40   20   42 1
    41   21   43 1
    42   21   44 1
    43   21   45 1
    44   22   46 1
    45   22   47 1
    46   22   48 1
    47   23   24 1
    48   23   25 1
    49   23   26 1
    50   24   49 1
    51   24   50 1
    52   24   51 1
    53   25   52 1
    54   25   53 1
    55   25   54 1
    56   26   55 1
    57   26   56 1
    58   26   57 1
@<TRIPOS>MOLECULE
ZINC09854210
   42    44     0     0     0
SMALL
USER_CHARGES
2-BLAHylsulfanylhexanoic acid
@<TRIPOS>ATOM
      1 C1         -9.5542    4.5013   -0.8416 C.3       1 <0>        -0.1498
      2 C2         -8.7004    4.6892    0.4140 C.3       1 <0>        -0.1244
      3 C3         -7.2338    4.4089    0.0802 C.3       1 <0>        -0.1232
      4 C4         -6.3800    4.5967    1.3358 C.3       1 <0>        -0.0872
      5 C5         -4.9134    4.3164    1.0020 C.3       1 <0>        -0.1020
      6 H1         -4.8246    3.3237    0.5606 H         1 <0>         0.0907
      7 C6         -4.0901    4.3810    2.2625 C.2       1 <0>         0.4764
      8 O1         -3.3284    3.4830    2.5334 O.co2     1 <0>        -0.6085
      9 S1         -4.3148    5.5553   -0.1739 S.3       1 <0>        -0.0477
     10 C7         -2.7013    4.9221   -0.4906 C.2       1 <0>         0.2299
     11 N1         -2.3665    3.8418    0.1245 N.2       1 <0>        -0.4604
     12 C8         -1.1956    3.1580    0.0303 C.ar      1 <0>         0.0909
     13 C9         -1.2195    1.7593    0.0173 C.ar      1 <0>        -0.0500
     14 C10        -0.0126    1.0758    0.0080 C.ar      1 <0>        -0.1716
     15 C11         1.1692    1.7881    0.0005 C.ar      1 <0>         0.0934
     16 N2          1.1675    3.1093   -0.0167 N.ar      1 <0>        -0.4944
     17 C12         0.0443    3.8080   -0.0226 C.ar      1 <0>         0.3334
     18 N3          0.1084    5.2013   -0.1072 N.pl3     1 <0>        -0.7086
     19 C13        -0.4906    5.8364   -1.1973 C.ar      1 <0>         0.2079
     20 C14        -1.8618    5.6762   -1.4335 C.ar      1 <0>        -0.1108
     21 C15        -2.4388    6.2762   -2.5538 C.ar      1 <0>        -0.0674
     22 C16        -1.6647    7.0431   -3.4014 C.ar      1 <0>        -0.1364
     23 C17        -0.3167    7.2218   -3.1472 C.ar      1 <0>        -0.0898
     24 C18         0.2712    6.6198   -2.0492 C.ar      1 <0>        -0.1399
     25 H2        -10.5990    4.7011   -0.6038 H         1 <0>         0.0490
     26 H3         -9.2192    5.1921   -1.6154 H         1 <0>         0.0526
     27 H4         -9.4526    3.4770   -1.2002 H         1 <0>         0.0511
     28 H5         -9.0353    3.9985    1.1879 H         1 <0>         0.0594
     29 H6         -8.8020    5.7135    0.7726 H         1 <0>         0.0613
     30 H7         -6.8989    5.0996   -0.6936 H         1 <0>         0.0661
     31 H8         -7.1322    3.3845   -0.2784 H         1 <0>         0.0587
     32 H9         -6.7149    3.9060    2.1097 H         1 <0>         0.0705
     33 H10        -6.4816    5.6210    1.6944 H         1 <0>         0.0762
     34 H11        -2.1572    1.2234    0.0186 H         1 <0>         0.1395
     35 H12         0.0021   -0.0041    0.0020 H         1 <0>         0.1369
     36 H13         2.1099    1.2577    0.0092 H         1 <0>         0.1549
     37 H14         0.5606    5.7177    0.5781 H         1 <0>         0.4129
     38 H15        -3.4905    6.1400   -2.7580 H         1 <0>         0.1354
     39 H16        -2.1140    7.5063   -4.2675 H         1 <0>         0.1284
     40 H17         0.2791    7.8334   -3.8086 H         1 <0>         0.1273
     41 H18         1.3245    6.7602   -1.8562 H         1 <0>         0.1297
     42 O2         -4.2028    5.4363    3.0844 O.co2     1 <0>        -0.7605
@<TRIPOS>BOND
     1    1    2 1
     2    1   25 1
     3    1   26 1
     4    1   27 1
     5    2    3 1
     6    2   28 1
     7    2   29 1
     8    3    4 1
     9    3   30 1
    10    3   31 1
    11    4    5 1
    12    4   32 1
    13    4   33 1
    14    5    6 1
    15    5    7 1
    16    5    9 1
    17    7    8 2
    18    7   42 1
    19    9   10 1
    20   10   20 1
    21   10   11 2
    22   11   12 1
    23   12   17 ar
    24   12   13 ar
    25   13   14 ar
    26   13   34 1
    27   14   15 ar
    28   14   35 1
    29   15   16 ar
    30   15   36 1
    31   16   17 ar
    32   17   18 1
    33   18   19 1
    34   18   37 1
    35   19   24 ar
    36   19   20 ar
    37   20   21 ar
    38   21   22 ar
    39   21   38 1
    40   22   23 ar
    41   22   39 1
    42   23   24 ar
    43   23   40 1
    44   24   41 1
@<TRIPOS>MOLECULE
ZINC13391195
   38    39     0     0     0
SMALL
USER_CHARGES
4-[3-(4-chlorophenyl)sulfanylpropanoylamino]-3-methyl-benzoic acid
@<TRIPOS>ATOM
      1 C1          5.6518   10.0251   -1.0652 C.3       1 <0>        -0.1062
      2 C2          6.6364    9.0864   -0.4166 C.ar      1 <0>        -0.1357
      3 C3          7.9633    9.4405   -0.3207 C.ar      1 <0>        -0.0668
      4 C4          8.8767    8.5668    0.2763 C.ar      1 <0>        -0.1226
      5 C5          8.4378    7.3381    0.7789 C.ar      1 <0>        -0.0629
      6 C6          7.1089    6.9929    0.6844 C.ar      1 <0>        -0.1423
      7 C7          6.2023    7.8652    0.0894 C.ar      1 <0>         0.1306
      8 N1          4.8570    7.5121   -0.0050 N.am      1 <0>        -0.6606
      9 C8          4.4999    6.2125   -0.0064 C.2       1 <0>         0.5129
     10 O1          5.3518    5.3496   -0.0264 O.2       1 <0>        -0.5142
     11 C9          3.0420    5.8316    0.0172 C.3       1 <0>        -0.1241
     12 C10         2.9130    4.3070    0.0105 C.3       1 <0>        -0.0949
     13 S1          1.1582    3.8485    0.0388 S.3       1 <0>        -0.1059
     14 C11         1.1777    2.0867    0.0281 C.ar      1 <0>        -0.0776
     15 C12        -0.0170    1.3771    0.0451 C.ar      1 <0>        -0.0892
     16 C13         0.0016   -0.0036    0.0362 C.ar      1 <0>        -0.0922
     17 C14         1.2083   -0.6807    0.0109 C.ar      1 <0>        -0.0418
     18 C15         2.3998    0.0232   -0.0060 C.ar      1 <0>        -0.0878
     19 C16         2.3877    1.4040    0.0023 C.ar      1 <0>        -0.1196
     20 Cl1         1.2275   -2.4166    0.0010 Cl        1 <0>        -0.0690
     21 C17        10.2997    8.9404    0.3762 C.2       1 <0>         0.4894
     22 O2         10.6796   10.0085   -0.0611 O.co2     1 <0>        -0.6335
     23 H1          5.2351   10.6925   -0.3108 H         1 <0>         0.0652
     24 H2          6.1598   10.6129   -1.8297 H         1 <0>         0.0697
     25 H3          4.8485    9.4487   -1.5241 H         1 <0>         0.0554
     26 H4          8.2989   10.3902   -0.7104 H         1 <0>         0.1304
     27 H5          9.1408    6.6605    1.2405 H         1 <0>         0.1333
     28 H6          6.7692    6.0439    1.0721 H         1 <0>         0.1389
     29 H7          4.1779    8.2017   -0.0698 H         1 <0>         0.4080
     30 H8          2.5450    6.2421   -0.8618 H         1 <0>         0.1068
     31 H9          2.5764    6.2317    0.9179 H         1 <0>         0.1083
     32 H10         3.4100    3.8965    0.8895 H         1 <0>         0.1005
     33 H11         3.3786    3.9069   -0.8902 H         1 <0>         0.1002
     34 H12        -0.9590    1.9050    0.0606 H         1 <0>         0.1379
     35 H13        -0.9266   -0.5557    0.0493 H         1 <0>         0.1386
     36 H14         3.3399   -0.5080   -0.0253 H         1 <0>         0.1383
     37 H15         3.3178    1.9528   -0.0105 H         1 <0>         0.1372
     38 O3         11.1788    8.0972    0.9524 O.co2     1 <0>        -0.7547
@<TRIPOS>BOND
     1    1    2 1
     2    1   23 1
     3    1   24 1
     4    1   25 1
     5    2    7 ar
     6    2    3 ar
     7    3    4 ar
     8    3   26 1
     9    4    5 ar
    10    4   21 1
    11    5    6 ar
    12    5   27 1
    13    6    7 ar
    14    6   28 1
    15    7    8 1
    16    8    9 am
    17    8   29 1
    18    9   10 2
    19    9   11 1
    20   11   12 1
    21   11   30 1
    22   11   31 1
    23   12   13 1
    24   12   32 1
    25   12   33 1
    26   13   14 1
    27   14   19 ar
    28   14   15 ar
    29   15   16 ar
    30   15   34 1
    31   16   17 ar
    32   16   35 1
    33   17   18 ar
    34   17   20 1
    35   18   19 ar
    36   18   36 1
    37   19   37 1
    38   21   22 2
    39   21   38 1
@<TRIPOS>MOLECULE
ZINC17078122
   48    49     0     0     0
SMALL
USER_CHARGES
(E)-4-[[3-cyano-5-methyl-4-(4-sec-butylphenyl)-2-thienyl]amino]-2-methyl-4-oxo-but-2-enoic acid
@<TRIPOS>ATOM
      1 C1          7.0709    2.3611   -0.5495 C.3       1 <0>        -0.1547
      2 C2          5.6478    2.9206   -0.4981 C.3       1 <0>        -0.1151
      3 C3          4.7576    2.1403   -1.4674 C.3       1 <0>        -0.0530
      4 H1          4.8149    1.0764   -1.2371 H         1 <0>         0.0764
      5 C4          5.2344    2.3779   -2.9017 C.3       1 <0>        -0.1461
      6 C5          3.3320    2.6084   -1.3279 C.ar      1 <0>        -0.0745
      7 C6          2.3459    1.7123   -0.9560 C.ar      1 <0>        -0.1160
      8 C7          1.0388    2.1352   -0.8262 C.ar      1 <0>        -0.0975
      9 C8          0.7129    3.4686   -1.0708 C.ar      1 <0>        -0.0337
     10 C9          1.7110    4.3671   -1.4453 C.ar      1 <0>        -0.0968
     11 C10         3.0146    3.9326   -1.5719 C.ar      1 <0>        -0.1146
     12 C11        -0.6903    3.9278   -0.9390 C.2       1 <0>        -0.0336
     13 C12        -1.0453    4.8282    0.0143 C.2       1 <0>        -0.1884
     14 S1         -2.7952    5.0353   -0.2513 S.3       1 <0>         0.2102
     15 C13        -3.0105    3.9187   -1.6241 C.2       1 <0>         0.1457
     16 C14        -1.7228    3.4348   -1.8264 C.2       1 <0>        -0.1378
     17 C15        -1.4320    2.4890   -2.8615 C.1       1 <0>         0.2735
     18 N1         -1.2013    1.7387   -3.6827 N.1       1 <0>        -0.4274
     19 N2         -4.1691    3.6137   -2.3188 N.am      1 <0>        -0.6199
     20 C16        -5.3347    4.1958   -1.9737 C.2       1 <0>         0.5471
     21 O1         -5.3690    4.9886   -1.0527 O.2       1 <0>        -0.4970
     22 C17        -6.5690    3.8709   -2.7137 C.2       1 <0>        -0.2394
     23 C18        -7.7501    4.3570   -2.2965 C.2       1 <0>        -0.0132
     24 C19        -7.8395    5.0999   -0.9884 C.3       1 <0>        -0.1188
     25 C20        -8.9587    4.1636   -3.1185 C.2       1 <0>         0.4764
     26 O2         -8.8867    3.5649   -4.1728 O.co2     1 <0>        -0.6183
     27 C21        -0.1708    5.4909    1.0473 C.3       1 <0>        -0.0633
     28 H2          7.0582    1.3091   -0.2645 H         1 <0>         0.0533
     29 H3          7.4632    2.4585   -1.5618 H         1 <0>         0.0567
     30 H4          7.7051    2.9170    0.1410 H         1 <0>         0.0536
     31 H5          5.6605    3.9726   -0.7832 H         1 <0>         0.0638
     32 H6          5.2554    2.8232    0.5141 H         1 <0>         0.0631
     33 H7          6.2656    2.0394   -3.0026 H         1 <0>         0.0597
     34 H8          4.6003    1.8220   -3.5922 H         1 <0>         0.0553
     35 H9          5.1771    3.4418   -3.1320 H         1 <0>         0.0567
     36 H10         2.5994    0.6796   -0.7672 H         1 <0>         0.1206
     37 H11         0.2697    1.4347   -0.5362 H         1 <0>         0.1204
     38 H12         1.4644    5.4011   -1.6363 H         1 <0>         0.1242
     39 H13         3.7887    4.6277   -1.8616 H         1 <0>         0.1217
     40 H14        -4.1418    2.9812   -3.0536 H         1 <0>         0.4236
     41 H15        -6.5232    3.2424   -3.5908 H         1 <0>         0.1398
     42 H16        -7.5730    6.1451   -1.1452 H         1 <0>         0.0769
     43 H17        -8.8577    5.0383   -0.6044 H         1 <0>         0.0731
     44 H18        -7.1524    4.6537   -0.2695 H         1 <0>         0.0759
     45 H19         0.2310    6.4194    0.6415 H         1 <0>         0.0769
     46 H20        -0.7612    5.7089    1.9373 H         1 <0>         0.0737
     47 H21         0.6502    4.8240    1.3103 H         1 <0>         0.0782
     48 O3        -10.1434    4.6512   -2.7000 O.co2     1 <0>        -0.7370
@<TRIPOS>BOND
     1    1    2 1
     2    1   28 1
     3    1   29 1
     4    1   30 1
     5    2    3 1
     6    2   31 1
     7    2   32 1
     8    3    4 1
     9    3    5 1
    10    3    6 1
    11    5   33 1
    12    5   34 1
    13    5   35 1
    14    6   11 ar
    15    6    7 ar
    16    7    8 ar
    17    7   36 1
    18    8    9 ar
    19    8   37 1
    20    9   10 ar
    21    9   12 1
    22   10   11 ar
    23   10   38 1
    24   11   39 1
    25   12   16 1
    26   12   13 2
    27   13   14 1
    28   13   27 1
    29   14   15 1
    30   15   16 2
    31   15   19 1
    32   16   17 1
    33   17   18 3
    34   19   20 am
    35   19   40 1
    36   20   21 2
    37   20   22 1
    38   22   23 2
    39   22   41 1
    40   23   24 1
    41   23   25 1
    42   24   42 1
    43   24   43 1
    44   24   44 1
    45   25   26 2
    46   25   48 1
    47   27   45 1
    48   27   46 1
    49   27   47 1
@<TRIPOS>MOLECULE
ZINC38568659
   44    47     0     0     0
SMALL
USER_CHARGES

@<TRIPOS>ATOM
      1 C1          1.7906    2.6062   -2.2087 C.3       1 <0>         0.0347
      2 O1          1.5499    1.2398   -1.8664 O.3       1 <0>        -0.3513
      3 C2          2.0736    0.3038   -2.6814 C.2       1 <0>         0.5090
      4 O2          2.7170    0.6382   -3.6559 O.2       1 <0>        -0.5033
      5 C3          1.8654   -1.1294   -2.3900 C.ar      1 <0>        -0.1315
      6 C4          1.1215   -1.5172   -1.2739 C.ar      1 <0>        -0.0629
      7 C5          0.9310   -2.8573   -1.0076 C.ar      1 <0>        -0.1272
      8 C6          1.4752   -3.8162   -1.8437 C.ar      1 <0>        -0.0563
      9 C7          2.2138   -3.4388   -2.9512 C.ar      1 <0>        -0.1065
     10 C8          2.4068   -2.1022   -3.2327 C.ar      1 <0>        -0.0498
     11 C9          1.2628   -5.2782   -1.5464 C.3       1 <0>         0.2025
     12 H1          1.2071   -5.4387   -0.4697 H         1 <0>         0.1025
     13 C10        -0.0073   -5.7707   -2.2166 C.3       1 <0>        -0.1076
     14 H2         -0.1383   -6.8443   -2.0813 H         1 <0>         0.0967
     15 C11        -1.3012   -5.0028   -1.9153 C.3       1 <0>        -0.0802
     16 C12        -2.0958   -5.2210   -3.2044 C.2       1 <0>        -0.2134
     17 C13        -1.2665   -5.4432   -4.2169 C.2       1 <0>        -0.1090
     18 C14         0.1423   -5.3881   -3.7197 C.3       1 <0>        -0.0266
     19 H3          0.4607   -4.3466   -3.7649 H         1 <0>         0.0916
     20 C15         1.2315   -6.2092   -4.2904 C.ar      1 <0>        -0.1117
     21 C16         1.2048   -6.6814   -5.6014 C.ar      1 <0>        -0.0554
     22 C17         2.2692   -7.4427   -6.0916 C.ar      1 <0>        -0.1399
     23 C18         3.3448   -7.7232   -5.2747 C.ar      1 <0>        -0.0758
     24 C19         3.3716   -7.2607   -3.9724 C.ar      1 <0>        -0.1203
     25 C20         2.3167   -6.5064   -3.4650 C.ar      1 <0>         0.2164
     26 N1          2.3603   -6.0824   -2.1268 N.pl3     1 <0>        -0.7451
     27 Cl1         4.7338   -7.6238   -2.9594 Cl        1 <0>        -0.0948
     28 C21         0.0530   -6.3781   -6.4712 C.2       1 <0>         0.5327
     29 O3         -0.7902   -7.2364   -6.6908 O.co2     1 <0>        -0.6815
     30 O4         -0.0590   -5.2684   -6.9728 O.co2     1 <0>        -0.6784
     31 H4          2.8642    2.7944   -2.2191 H         1 <0>         0.0598
     32 H5          1.3761    2.8120   -3.1955 H         1 <0>         0.0613
     33 H6          1.3152    3.2544   -1.4725 H         1 <0>         0.1018
     34 H7          0.6965   -0.7698   -0.6203 H         1 <0>         0.1374
     35 H8          0.3561   -3.1587   -0.1444 H         1 <0>         0.1335
     36 H9          2.6363   -4.1924   -3.5993 H         1 <0>         0.1383
     37 H10         2.9794   -1.8090   -4.1002 H         1 <0>         0.1375
     38 H11        -1.8204   -5.4330   -1.0589 H         1 <0>         0.0671
     39 H12        -1.0988   -3.9437   -1.7558 H         1 <0>         0.0769
     40 H13        -3.1730   -5.1983   -3.2795 H         1 <0>         0.1245
     41 H14        -1.5577   -5.6491   -5.2363 H         1 <0>         0.1538
     42 H15         2.2497   -7.8105   -7.1068 H         1 <0>         0.1246
     43 H16         4.1699   -8.3074   -5.6545 H         1 <0>         0.1253
     44 H17         3.1205   -6.3202   -1.5732 H         1 <0>         0.4006
@<TRIPOS>BOND
     1    1    2 1
     2    1   31 1
     3    1   32 1
     4    1   33 1
     5    2    3 1
     6    3    4 2
     7    3    5 1
     8    5   10 ar
     9    5    6 ar
    10    6    7 ar
    11    6   34 1
    12    7    8 ar
    13    7   35 1
    14    8    9 ar
    15    8   11 1
    16    9   10 ar
    17    9   36 1
    18   10   37 1
    19   11   12 1
    20   11   26 1
    21   11   13 1
    22   13   14 1
    23   13   18 1
    24   13   15 1
    25   15   16 1
    26   15   38 1
    27   15   39 1
    28   16   17 2
    29   16   40 1
    30   17   18 1
    31   17   41 1
    32   18   19 1
    33   18   20 1
    34   20   25 ar
    35   20   21 ar
    36   21   22 ar
    37   21   28 1
    38   22   23 ar
    39   22   42 1
    40   23   24 ar
    41   23   43 1
    42   24   25 ar
    43   24   27 1
    44   25   26 1
    45   26   44 1
    46   28   29 2
    47   28   30 1
@<TRIPOS>MOLECULE
ZINC13522210
   42    45     0     0     0
SMALL
USER_CHARGES

@<TRIPOS>ATOM
      1 C1         -0.0184    1.5028    0.0103 C.3       1 <0>        -0.1099
      2 C2          0.0021   -0.0041    0.0020 C.ar      1 <0>        -0.1051
      3 C3          0.0057   -0.6873   -1.2005 C.ar      1 <0>        -0.1025
      4 C4          0.0239   -2.0679   -1.2119 C.ar      1 <0>        -0.1014
      5 C5          0.0391   -2.7710   -0.0132 C.ar      1 <0>        -0.0836
      6 C6          0.0359   -2.0810    1.1932 C.ar      1 <0>        -0.1326
      7 C7          0.0229   -0.7003    1.1969 C.ar      1 <0>        -0.0997
      8 S1          0.0619   -4.5328   -0.0229 S.3       1 <0>        -0.0844
      9 C8          0.0766   -4.9812    1.7348 C.3       1 <0>        -0.0478
     10 C9          0.0967   -6.4819    1.8702 C.ar      1 <0>         0.2557
     11 C10        -1.1129   -7.1616    1.9306 C.ar      1 <0>        -0.3897
     12 C11        -1.1373   -8.5388    2.0544 C.ar      1 <0>         0.3702
     13 C12         0.0995   -9.2188    2.1162 C.ar      1 <0>        -0.3105
     14 C13         1.3384   -8.4285    2.0459 C.ar      1 <0>         0.3316
     15 N1          1.2552   -7.0933    1.9208 N.ar      1 <0>        -0.5748
     16 N2          2.3395   -9.2855    2.1239 N.2       1 <0>        -0.3221
     17 N3          1.8288  -10.5826    2.2405 N.pl3     1 <0>        -0.3142
     18 C14         0.4844  -10.5475    2.2363 C.2       1 <0>         0.3163
     19 O1         -0.3443  -11.6151    2.3323 O.3       1 <0>        -0.4531
     20 C15         2.6026  -11.7453    2.3455 C.ar      1 <0>         0.1584
     21 C16         2.1632  -12.8053    3.1277 C.ar      1 <0>        -0.1265
     22 C17         2.9284  -13.9506    3.2288 C.ar      1 <0>        -0.1027
     23 C18         4.1311  -14.0423    2.5525 C.ar      1 <0>        -0.1307
     24 C19         4.5715  -12.9885    1.7728 C.ar      1 <0>        -0.1059
     25 C20         3.8082  -11.8427    1.6631 C.ar      1 <0>        -0.1092
     26 O2         -2.3104   -9.2147    2.1149 O.3       1 <0>        -0.6732
     27 H1          1.0042    1.8801    0.0026 H         1 <0>         0.0668
     28 H2         -0.5455    1.8639   -0.8728 H         1 <0>         0.0635
     29 H3         -0.5286    1.8543    0.9071 H         1 <0>         0.0635
     30 H4         -0.0061   -0.1403   -2.1316 H         1 <0>         0.1229
     31 H5          0.0260   -2.6008   -2.1513 H         1 <0>         0.1261
     32 H6          0.0477   -2.6241    2.1266 H         1 <0>         0.1250
     33 H7          0.0244   -0.1634    2.1339 H         1 <0>         0.1217
     34 H8          0.9637   -4.5616    2.2093 H         1 <0>         0.0995
     35 H9         -0.8161   -4.5846    2.2184 H         1 <0>         0.0985
     36 H10        -2.0407   -6.6110    1.8809 H         1 <0>         0.1104
     37 H11        -0.5845  -12.0045    1.4804 H         1 <0>         0.3960
     38 H12         1.2243  -12.7340    3.6566 H         1 <0>         0.1367
     39 H13         2.5872  -14.7754    3.8369 H         1 <0>         0.1288
     40 H14         4.7280  -14.9387    2.6338 H         1 <0>         0.1244
     41 H15         5.5114  -13.0630    1.2462 H         1 <0>         0.1285
     42 H16         4.1507  -11.0216    1.0507 H         1 <0>         0.1351
@<TRIPOS>BOND
     1    1    2 1
     2    1   27 1
     3    1   28 1
     4    1   29 1
     5    2    7 ar
     6    2    3 ar
     7    3    4 ar
     8    3   30 1
     9    4    5 ar
    10    4   31 1
    11    5    6 ar
    12    5    8 1
    13    6    7 ar
    14    6   32 1
    15    7   33 1
    16    8    9 1
    17    9   10 1
    18    9   34 1
    19    9   35 1
    20   10   15 ar
    21   10   11 ar
    22   11   12 ar
    23   11   36 1
    24   12   13 ar
    25   12   26 1
    26   13   18 2
    27   13   14 ar
    28   14   15 ar
    29   14   16 2
    30   16   17 1
    31   17   18 1
    32   17   20 1
    33   18   19 1
    34   19   37 1
    35   20   25 ar
    36   20   21 ar
    37   21   22 ar
    38   21   38 1
    39   22   23 ar
    40   22   39 1
    41   23   24 ar
    42   23   40 1
    43   24   25 ar
    44   24   41 1
    45   25   42 1
@<TRIPOS>MOLECULE
ZINC12746758
   48    49     0     0     0
SMALL
USER_CHARGES
1,6-diisopropyl-N-sec-butyl-pyrazolo[5,4-b]pyridine-4-carboxamide
@<TRIPOS>ATOM
      1 C1         -5.2542   -2.5367   -2.0457 C.3       1 <0>        -0.1551
      2 C2         -5.6163   -2.3795   -0.5675 C.3       1 <0>        -0.1325
      3 C3         -4.7952   -1.2405    0.0403 C.3       1 <0>         0.1398
      4 H1         -4.9461   -0.3323   -0.5431 H         1 <0>         0.0926
      5 C4         -5.2453   -1.0008    1.4828 C.3       1 <0>        -0.1659
      6 N1         -3.3751   -1.6003    0.0253 N.am      1 <0>        -0.7150
      7 C5         -2.4352   -0.6343    0.0215 C.2       1 <0>         0.5606
      8 O1         -2.7658    0.5353    0.0305 O.2       1 <0>        -0.5208
      9 C6         -1.0019   -0.9974    0.0063 C.ar      1 <0>        -0.0070
     10 C7         -0.5975   -2.3307   -0.0048 C.ar      1 <0>        -0.1788
     11 C8          0.7561   -2.6305   -0.0193 C.ar      1 <0>         0.2042
     12 N2          1.6721   -1.6874   -0.0234 N.ar      1 <0>        -0.4847
     13 C9          1.3547   -0.4008   -0.0130 C.ar      1 <0>         0.3142
     14 C10         0.0021   -0.0041    0.0020 C.ar      1 <0>        -0.1843
     15 C11        -0.0171    1.4069    0.0098 C.2       1 <0>         0.0920
     16 N3          1.2117    1.8388    0.0004 N.2       1 <0>        -0.2321
     17 N4          2.0949    0.7529   -0.0139 N.pl3     1 <0>        -0.3803
     18 C12         3.5576    0.8352   -0.0282 C.3       1 <0>         0.1642
     19 C13         4.0137    1.5910   -1.2778 C.3       1 <0>        -0.1620
     20 C14         4.0388    1.5768    1.2206 C.3       1 <0>        -0.1620
     21 C15         1.1885   -4.0741   -0.0312 C.3       1 <0>        -0.0482
     22 C16         1.2281   -4.6065    1.4026 C.3       1 <0>        -0.1426
     23 C17         0.1950   -4.8973   -0.8536 C.3       1 <0>        -0.1495
     24 H2         -5.8392   -3.3481   -2.4788 H         1 <0>         0.0585
     25 H3         -5.4731   -1.6088   -2.5741 H         1 <0>         0.0568
     26 H4         -4.1924   -2.7652   -2.1374 H         1 <0>         0.0543
     27 H5         -5.3974   -3.3074   -0.0391 H         1 <0>         0.0691
     28 H6         -6.6781   -2.1510   -0.4758 H         1 <0>         0.0818
     29 H7         -5.0944   -1.9090    2.0663 H         1 <0>         0.0578
     30 H8         -4.6603   -0.1894    1.9159 H         1 <0>         0.0622
     31 H9         -6.3019   -0.7331    1.4940 H         1 <0>         0.0686
     32 H10        -3.1113   -2.5337    0.0181 H         1 <0>         0.3999
     33 H11        -1.3314   -3.1230   -0.0017 H         1 <0>         0.1448
     34 H12        -0.9025    2.0253    0.0175 H         1 <0>         0.2049
     35 H13         3.9780   -0.1705   -0.0381 H         1 <0>         0.1075
     36 H14         3.5933    2.5967   -1.2678 H         1 <0>         0.0707
     37 H15         5.1019    1.6523   -1.2884 H         1 <0>         0.0778
     38 H16         3.6708    1.0627   -2.1674 H         1 <0>         0.0595
     39 H17         3.7139    1.0383    2.1108 H         1 <0>         0.0594
     40 H18         5.1271    1.6380    1.2100 H         1 <0>         0.0777
     41 H19         3.6184    2.5824    1.2305 H         1 <0>         0.0707
     42 H20         2.1807   -4.1526   -0.4755 H         1 <0>         0.0954
     43 H21         0.2358   -4.5281    1.8468 H         1 <0>         0.0583
     44 H22         1.5408   -5.6507    1.3940 H         1 <0>         0.0680
     45 H23         1.9359   -4.0201    1.9885 H         1 <0>         0.0593
     46 H24         0.1667   -4.5180   -1.8751 H         1 <0>         0.0604
     47 H25         0.5077   -5.9414   -0.8622 H         1 <0>         0.0692
     48 H26        -0.7973   -4.8188   -0.4094 H         1 <0>         0.0605
@<TRIPOS>BOND
     1    1    2 1
     2    1   24 1
     3    1   25 1
     4    1   26 1
     5    2    3 1
     6    2   27 1
     7    2   28 1
     8    3    4 1
     9    3    5 1
    10    3    6 1
    11    5   29 1
    12    5   30 1
    13    5   31 1
    14    6    7 am
    15    6   32 1
    16    7    8 2
    17    7    9 1
    18    9   14 ar
    19    9   10 ar
    20   10   11 ar
    21   10   33 1
    22   11   12 ar
    23   11   21 1
    24   12   13 ar
    25   13   17 1
    26   13   14 ar
    27   14   15 1
    28   15   16 2
    29   15   34 1
    30   16   17 1
    31   17   18 1
    32   18   19 1
    33   18   20 1
    34   18   35 1
    35   19   36 1
    36   19   37 1
    37   19   38 1
    38   20   39 1
    39   20   40 1
    40   20   41 1
    41   21   22 1
    42   21   23 1
    43   21   42 1
    44   22   43 1
    45   22   44 1
    46   22   45 1
    47   23   46 1
    48   23   47 1
    49   23   48 1
@<TRIPOS>MOLECULE
ZINC06741040
   47    48     0     0     0
SMALL
USER_CHARGES

@<TRIPOS>ATOM
      1 C1         -0.0184    1.5028    0.0103 C.3       1 <0>        -0.0678
      2 C2          0.0021   -0.0041    0.0020 C.2       1 <0>         0.1851
      3 N1          0.0082   -0.7704   -1.0518 N.2       1 <0>        -0.2860
      4 N2          0.0272   -2.0060   -0.6987 N.2       1 <0>        -0.2962
      5 C3          0.0342   -2.0955    0.6111 C.2       1 <0>         0.1425
      6 N3          0.0236   -0.8203    1.0991 N.pl3     1 <0>        -0.4541
      7 C4          0.0306   -0.4114    2.5058 C.3       1 <0>         0.1254
      8 C5         -1.2045   -0.9792    3.2081 C.3       1 <0>        -0.1719
      9 C6          1.2937   -0.9439    3.1855 C.3       1 <0>        -0.1714
     10 S1          0.0593   -3.5801    1.5598 S.3       1 <0>         0.0785
     11 C7          0.0732   -4.8975    0.3128 C.3       1 <0>        -0.1548
     12 C8          0.0952   -6.2388    0.9994 C.2       1 <0>         0.5369
     13 O1          0.1009   -6.3000    2.2107 O.2       1 <0>        -0.5214
     14 N4          0.1084   -7.3704    0.2674 N.am      1 <0>        -0.7225
     15 C9          0.1298   -8.6743    0.9349 C.3       1 <0>         0.1505
     16 C10         1.5818   -9.0069    1.3349 C.3       1 <0>        -0.1244
     17 C11         1.5514  -10.0394    2.4292 C.3       1 <0>        -0.1170
     18 C12         1.6744  -11.4763    1.8873 C.3       1 <0>        -0.1190
     19 C13         0.8398  -11.7078    0.6131 C.3       1 <0>        -0.1217
     20 C14        -0.5197  -11.0674    0.6910 C.3       1 <0>        -0.1106
     21 C15        -0.4416   -9.6707    0.0411 C.3       1 <0>        -0.1320
     22 H1          1.0042    1.8801    0.0026 H         1 <0>         0.0881
     23 H2         -0.5455    1.8639   -0.8728 H         1 <0>         0.0980
     24 H3         -0.5286    1.8543    0.9071 H         1 <0>         0.0785
     25 H4          0.0157    0.6767    2.5680 H         1 <0>         0.1106
     26 H5         -1.1993   -0.6750    4.2548 H         1 <0>         0.0862
     27 H6         -2.1043   -0.5999    2.7239 H         1 <0>         0.0661
     28 H7         -1.1896   -2.0674    3.1460 H         1 <0>         0.0767
     29 H8          2.1735   -0.5393    2.6851 H         1 <0>         0.0661
     30 H9          1.2989   -0.6396    4.2321 H         1 <0>         0.0861
     31 H10         1.3085   -2.0320    3.1233 H         1 <0>         0.0767
     32 H11        -0.8205   -4.8209   -0.3065 H         1 <0>         0.1246
     33 H12         0.9593   -4.7954   -0.3137 H         1 <0>         0.1247
     34 H13         0.1038   -7.3214   -0.7013 H         1 <0>         0.4028
     35 H14        -0.4795   -8.6186    1.8370 H         1 <0>         0.0872
     36 H15         2.1176   -9.4031    0.4724 H         1 <0>         0.0683
     37 H16         2.0778   -8.1058    1.6954 H         1 <0>         0.0680
     38 H17         2.3763   -9.8496    3.1160 H         1 <0>         0.0623
     39 H18         0.6124   -9.9474    2.9749 H         1 <0>         0.0632
     40 H19         2.7217  -11.6791    1.6632 H         1 <0>         0.0592
     41 H20         1.3409  -12.1721    2.6572 H         1 <0>         0.0602
     42 H21         1.3765  -11.2932   -0.2402 H         1 <0>         0.0614
     43 H22         0.7163  -12.7802    0.4624 H         1 <0>         0.0608
     44 H23        -1.2444  -11.6805    0.1552 H         1 <0>         0.0693
     45 H24        -0.8191  -10.9694    1.7344 H         1 <0>         0.0698
     46 H25        -1.4461   -9.3564   -0.2420 H         1 <0>         0.0685
     47 H26         0.1730   -9.7331   -0.8570 H         1 <0>         0.0688
@<TRIPOS>BOND
     1    1    2 1
     2    1   22 1
     3    1   23 1
     4    1   24 1
     5    2    6 1
     6    2    3 2
     7    3    4 1
     8    4    5 2
     9    5    6 1
    10    5   10 1
    11    6    7 1
    12    7    8 1
    13    7    9 1
    14    7   25 1
    15    8   26 1
    16    8   27 1
    17    8   28 1
    18    9   29 1
    19    9   30 1
    20    9   31 1
    21   10   11 1
    22   11   12 1
    23   11   32 1
    24   11   33 1
    25   12   13 2
    26   12   14 am
    27   14   15 1
    28   14   34 1
    29   15   21 1
    30   15   16 1
    31   15   35 1
    32   16   17 1
    33   16   36 1
    34   16   37 1
    35   17   18 1
    36   17   38 1
    37   17   39 1
    38   18   19 1
    39   18   40 1
    40   18   41 1
    41   19   20 1
    42   19   42 1
    43   19   43 1
    44   20   21 1
    45   20   44 1
    46   20   45 1
    47   21   46 1
    48   21   47 1
@<TRIPOS>MOLECULE
ZINC46812133
   48    49     0     0     0
SMALL
USER_CHARGES

@<TRIPOS>ATOM
      1 C1         -0.0187    1.5258    0.0104 C.3       1 <0>        -0.1466
      2 C2          0.0021   -0.0041    0.0020 C.3       1 <0>         0.0761
      3 H1          0.5121   -0.3563   -0.8946 H         1 <0>         0.0628
      4 C3         -1.4357   -0.5357    0.0154 C.3       1 <0>         0.0925
      5 N1         -1.3891   -1.9954    0.1960 N.pl3     1 <0>        -1.0096
      6 C4         -0.5783   -2.5300    1.3016 C.3       1 <0>         0.0898
      7 C5          0.8176   -1.9012    1.2255 C.3       1 <0>         0.0758
      8 H2          1.3309   -2.2611    0.3338 H         1 <0>         0.0622
      9 O1          0.6913   -0.4787    1.1611 O.3       1 <0>        -0.3693
     10 C6          1.6209   -2.2882    2.4688 C.3       1 <0>        -0.1469
     11 S1         -2.2247   -3.0065   -0.8147 S.o2      1 <0>         2.7850
     12 O2         -2.4435   -4.2114   -0.0939 O.2       1 <0>        -0.9706
     13 O3         -3.2902   -2.2428   -1.3632 O.2       1 <0>        -0.9730
     14 N2         -1.2164   -3.3840   -2.0729 N.pl3     1 <0>        -1.1277
     15 C7          0.0048   -4.1550   -1.8270 C.3       1 <0>         0.1146
     16 C8          0.5501   -4.6840   -3.1550 C.3       1 <0>        -0.1223
     17 C9          1.8255   -5.4892   -2.8982 C.3       1 <0>        -0.0852
     18 C10         1.4859   -6.7337   -2.0756 C.3       1 <0>        -0.1204
     19 C11         2.7613   -7.5389   -1.8187 C.3       1 <0>        -0.1204
     20 C12         3.3749   -7.9624   -3.1548 C.3       1 <0>        -0.1216
     21 C13         3.7144   -6.7178   -3.9774 C.3       1 <0>        -0.1202
     22 C14         2.4391   -5.9127   -4.2343 C.3       1 <0>        -0.1140
     23 H3          1.0039    1.9031    0.0027 H         1 <0>         0.0689
     24 H4         -0.5459    1.8868   -0.8726 H         1 <0>         0.0754
     25 H5         -0.5289    1.8773    0.9072 H         1 <0>         0.0680
     26 H6         -1.9874   -0.0814    0.8384 H         1 <0>         0.0837
     27 H7         -1.9238   -0.2981   -0.9298 H         1 <0>         0.0981
     28 H8         -1.0437   -2.2765    2.2541 H         1 <0>         0.0843
     29 H9         -0.4987   -3.6131    1.2081 H         1 <0>         0.0974
     30 H10         1.7137   -3.3731    2.5183 H         1 <0>         0.0757
     31 H11         2.6133   -1.8407    2.4140 H         1 <0>         0.0692
     32 H12         1.1079   -1.9264    3.3599 H         1 <0>         0.0682
     33 H13        -1.4343   -3.0947   -2.9728 H         1 <0>         0.4176
     34 H14         0.7508   -3.5139   -1.3574 H         1 <0>         0.0615
     35 H15        -0.2212   -4.9929   -1.1675 H         1 <0>         0.0809
     36 H16        -0.1959   -5.3251   -3.6246 H         1 <0>         0.0736
     37 H17         0.7761   -3.8461   -3.8146 H         1 <0>         0.0712
     38 H18         2.5390   -4.8744   -2.3493 H         1 <0>         0.0731
     39 H19         1.0488   -6.4320   -1.1237 H         1 <0>         0.0642
     40 H20         0.7725   -7.3485   -2.6244 H         1 <0>         0.0644
     41 H21         3.4747   -6.9242   -1.2699 H         1 <0>         0.0615
     42 H22         2.5194   -8.4256   -1.2327 H         1 <0>         0.0622
     43 H23         4.2835   -8.5360   -2.9718 H         1 <0>         0.0608
     44 H24         2.6614   -8.5771   -3.7037 H         1 <0>         0.0612
     45 H25         4.4279   -6.1031   -3.4286 H         1 <0>         0.0613
     46 H26         4.1515   -7.0195   -4.9292 H         1 <0>         0.0616
     47 H27         1.7256   -6.5274   -4.7831 H         1 <0>         0.0630
     48 H28         2.6810   -5.0260   -4.8203 H         1 <0>         0.0618
@<TRIPOS>BOND
     1    1    2 1
     2    1   23 1
     3    1   24 1
     4    1   25 1
     5    2    3 1
     6    2    9 1
     7    2    4 1
     8    4    5 1
     9    4   26 1
    10    4   27 1
    11    5    6 1
    12    5   11 1
    13    6    7 1
    14    6   28 1
    15    6   29 1
    16    7    8 1
    17    7    9 1
    18    7   10 1
    19   10   30 1
    20   10   31 1
    21   10   32 1
    22   11   12 2
    23   11   13 2
    24   11   14 1
    25   14   15 1
    26   14   33 1
    27   15   16 1
    28   15   34 1
    29   15   35 1
    30   16   17 1
    31   16   36 1
    32   16   37 1
    33   17   22 1
    34   17   18 1
    35   17   38 1
    36   18   19 1
    37   18   39 1
    38   18   40 1
    39   19   20 1
    40   19   41 1
    41   19   42 1
    42   20   21 1
    43   20   43 1
    44   20   44 1
    45   21   22 1
    46   21   45 1
    47   21   46 1
    48   22   47 1
    49   22   48 1
@<TRIPOS>MOLECULE
ZINC61640293
   36    38     0     0     0
SMALL
USER_CHARGES

@<TRIPOS>ATOM
      1 C1         -0.0178    1.4608    0.0101 C.3       1 <0>         0.0926
      2 N1          0.0021   -0.0041    0.0020 N.pl3     1 <0>        -0.7255
      3 C2          0.6036   -0.6855   -1.0504 C.ar      1 <0>         0.4060
      4 C3          1.1897    0.0303   -2.0895 C.ar      1 <0>        -0.2212
      5 C4          1.7850   -0.6596   -3.1299 C.ar      1 <0>        -0.0239
      6 C5          1.7742   -2.0489   -3.0962 C.ar      1 <0>        -0.1297
      7 C6          1.1740   -2.6947   -2.0329 C.ar      1 <0>         0.1923
      8 N2          0.6181   -2.0092   -1.0515 N.ar      1 <0>        -0.5159
      9 C7          1.1583   -4.2010   -1.9903 C.3       1 <0>         0.1089
     10 O1          2.3248   -4.6705   -1.3114 O.3       1 <0>        -0.3674
     11 C8          2.4081   -6.0938   -1.2154 C.3       1 <0>         0.1081
     12 C9          3.6701   -6.4750   -0.4854 C.ar      1 <0>        -0.0817
     13 C10         4.8407   -6.6796   -1.1919 C.ar      1 <0>        -0.0839
     14 C11         6.0010   -7.0290   -0.5267 C.ar      1 <0>        -0.1033
     15 C12         5.9931   -7.1755    0.8509 C.ar      1 <0>         0.0391
     16 C13         4.8140   -6.9695    1.5627 C.ar      1 <0>         0.0276
     17 C14         3.6562   -6.6139    0.8900 C.ar      1 <0>        -0.0772
     18 O2          5.0640   -7.1724    2.8892 O.3       1 <0>        -0.3082
     19 C15         6.3046   -7.9014    2.9395 C.3       1 <0>         0.2129
     20 O3          6.9819   -7.5074    1.7315 O.3       1 <0>        -0.3085
     21 Cl1         2.5069   -2.9630   -4.3772 Cl        1 <0>        -0.0558
     22 H1          1.0048    1.8381    0.0023 H         1 <0>         0.0587
     23 H2         -0.5450    1.8219   -0.8730 H         1 <0>         0.0588
     24 H3         -0.5280    1.8123    0.9069 H         1 <0>         0.0826
     25 H4         -0.4044   -0.4986    0.7308 H         1 <0>         0.4089
     26 H5          1.1796    1.1102   -2.0840 H         1 <0>         0.1424
     27 H6          2.2474   -0.1307   -3.9501 H         1 <0>         0.1468
     28 H7          0.2683   -4.5402   -1.4603 H         1 <0>         0.0732
     29 H8          1.1471   -4.5931   -3.0072 H         1 <0>         0.0761
     30 H9          1.5440   -6.4723   -0.6693 H         1 <0>         0.0643
     31 H10         2.4229   -6.5252   -2.2163 H         1 <0>         0.0670
     32 H11         4.8485   -6.5666   -2.2660 H         1 <0>         0.1409
     33 H12         6.9140   -7.1881   -1.0812 H         1 <0>         0.1386
     34 H13         2.7413   -6.4491    1.4398 H         1 <0>         0.1370
     35 H14         6.8843   -7.6110    3.8157 H         1 <0>         0.1330
     36 H15         6.1180   -8.9753    2.9411 H         1 <0>         0.0860
@<TRIPOS>BOND
     1    1    2 1
     2    1   22 1
     3    1   23 1
     4    1   24 1
     5    2    3 1
     6    2   25 1
     7    3    8 ar
     8    3    4 ar
     9    4    5 ar
    10    4   26 1
    11    5    6 ar
    12    5   27 1
    13    6    7 ar
    14    6   21 1
    15    7    8 ar
    16    7    9 1
    17    9   10 1
    18    9   28 1
    19    9   29 1
    20   10   11 1
    21   11   12 1
    22   11   30 1
    23   11   31 1
    24   12   17 ar
    25   12   13 ar
    26   13   14 ar
    27   13   32 1
    28   14   15 ar
    29   14   33 1
    30   15   20 1
    31   15   16 ar
    32   16   17 ar
    33   16   18 1
    34   17   34 1
    35   18   19 1
    36   19   20 1
    37   19   35 1
    38   19   36 1
@<TRIPOS>MOLECULE
ZINC66976622
   42    44     0     0     0
SMALL
USER_CHARGES

@<TRIPOS>ATOM
      1 C1         -0.3534    1.3217   -0.1330 C.3       1 <0>         0.0889
      2 N1         -0.0544   -0.1099   -0.0474 N.am      1 <0>        -0.6175
      3 C2          0.1346   -0.7418    1.2608 C.3       1 <0>         0.2730
      4 H1          0.2738   -1.8148    1.1293 H         1 <0>         0.1415
      5 C3         -1.0795   -0.4941    2.1184 C.ar      1 <0>        -0.0995
      6 C4         -2.3352   -0.4502    1.5418 C.ar      1 <0>        -0.0654
      7 C5         -3.4493   -0.2236    2.3274 C.ar      1 <0>        -0.1499
      8 C6         -3.3076   -0.0404    3.6925 C.ar      1 <0>         0.1047
      9 C7         -2.0495   -0.0846    4.2689 C.ar      1 <0>        -0.1493
     10 C8         -0.9373   -0.3166    3.4821 C.ar      1 <0>        -0.0716
     11 F1         -4.3961    0.1816    4.4613 F         1 <0>        -0.1372
     12 C9          1.3508   -0.1559    1.9306 C.ar      1 <0>         0.3099
     13 N2          1.5213    1.1510    1.9210 N.ar      1 <0>        -0.5021
     14 C10         2.5770    1.7012    2.4989 C.ar      1 <0>         0.1481
     15 C11         3.5087    0.8837    3.1190 C.ar      1 <0>        -0.2256
     16 C12         3.2950   -0.4856    3.1082 C.ar      1 <0>         0.1510
     17 N3          2.2129   -0.9636    2.5149 N.ar      1 <0>        -0.5063
     18 C13         0.0467   -0.8457   -1.1721 C.2       1 <0>         0.7070
     19 O1          0.2949   -2.0338   -1.1010 O.2       1 <0>        -0.5827
     20 N4         -0.1272   -0.2644   -2.3755 N.am      1 <0>        -0.7392
     21 C14        -0.0172   -1.0641   -3.5980 C.3       1 <0>         0.1682
     22 C15        -0.2564   -0.1695   -4.8160 C.3       1 <0>        -0.1733
     23 C16        -1.4751   -0.4755   -5.6888 C.3       1 <0>        -0.1757
     24 C17        -0.0687   -0.7949   -6.1996 C.3       1 <0>        -0.1686
     25 H2          0.5707    1.8769   -0.2935 H         1 <0>         0.0612
     26 H3         -1.0345    1.5015   -0.9649 H         1 <0>         0.0599
     27 H4         -0.8190    1.6518    0.7956 H         1 <0>         0.0832
     28 H5         -2.4454   -0.5927    0.4769 H         1 <0>         0.1335
     29 H6         -4.4302   -0.1890    1.8766 H         1 <0>         0.1392
     30 H7         -1.9377    0.0584    5.3335 H         1 <0>         0.1372
     31 H8          0.0437   -0.3555    3.9321 H         1 <0>         0.1226
     32 H9          2.7109    2.7728    2.4872 H         1 <0>         0.1707
     33 H10         4.3805    1.3036    3.5987 H         1 <0>         0.1505
     34 H11         3.9999   -1.1533    3.5811 H         1 <0>         0.1723
     35 H12        -0.3252    0.6835   -2.4322 H         1 <0>         0.3987
     36 H13         0.9797   -1.5008   -3.6581 H         1 <0>         0.0709
     37 H14        -0.7619   -1.8599   -3.5799 H         1 <0>         0.0702
     38 H15         0.0258    0.8762   -4.6938 H         1 <0>         0.1095
     39 H16        -2.1065   -1.3141   -5.3954 H         1 <0>         0.0978
     40 H17        -1.9951    0.3690   -6.1411 H         1 <0>         0.0965
     41 H18         0.3366   -0.1605   -6.9879 H         1 <0>         0.0987
     42 H19         0.2251   -1.8437   -6.2423 H         1 <0>         0.0989
@<TRIPOS>BOND
     1    1    2 1
     2    1   25 1
     3    1   26 1
     4    1   27 1
     5    2    3 1
     6    2   18 am
     7    3    4 1
     8    3    5 1
     9    3   12 1
    10    5   10 ar
    11    5    6 ar
    12    6    7 ar
    13    6   28 1
    14    7    8 ar
    15    7   29 1
    16    8    9 ar
    17    8   11 1
    18    9   10 ar
    19    9   30 1
    20   10   31 1
    21   12   17 ar
    22   12   13 ar
    23   13   14 ar
    24   14   15 ar
    25   14   32 1
    26   15   16 ar
    27   15   33 1
    28   16   17 ar
    29   16   34 1
    30   18   19 2
    31   18   20 am
    32   20   21 1
    33   20   35 1
    34   21   22 1
    35   21   36 1
    36   21   37 1
    37   22   24 1
    38   22   23 1
    39   22   38 1
    40   23   24 1
    41   23   39 1
    42   23   40 1
    43   24   41 1
    44   24   42 1
@<TRIPOS>MOLECULE
ZINC32691814
   38    39     0     0     0
SMALL
USER_CHARGES
2-(4,5-dimethyloxazol-2-yl)sulfanyl-N-(3,5-dimethylphenyl)acetamide
@<TRIPOS>ATOM
      1 C1         -2.8599    4.7036   -1.4365 C.3       1 <0>        -0.1179
      2 C2         -2.6681    3.4114   -0.6852 C.ar      1 <0>        -0.0627
      3 C3         -3.7269    2.8498    0.0046 C.ar      1 <0>        -0.1350
      4 C4         -3.5550    1.6642    0.6952 C.ar      1 <0>        -0.0637
      5 C5         -2.3245    1.0371    0.6980 C.ar      1 <0>        -0.1499
      6 C6         -1.2590    1.5987    0.0066 C.ar      1 <0>         0.1527
      7 C7         -1.4333    2.7927   -0.6809 C.ar      1 <0>        -0.1292
      8 N1         -0.0111    0.9658    0.0074 N.am      1 <0>        -0.6774
      9 C8          1.1178    1.7020    0.0069 C.2       1 <0>         0.5367
     10 O1          1.0537    2.9105   -0.0735 O.2       1 <0>        -0.5073
     11 C9          2.4598    1.0237    0.1064 C.3       1 <0>        -0.1570
     12 S1          3.7703    2.2720    0.0805 S.3       1 <0>         0.1287
     13 C10         5.1866    1.2314    0.2064 C.2       1 <0>         0.1473
     14 N2          5.1700   -0.0767    0.2955 N.2       1 <0>        -0.4824
     15 C11         6.4403   -0.5184    0.3710 C.2       1 <0>        -0.0056
     16 C12         7.2490    0.5507    0.3359 C.2       1 <0>        -0.0434
     17 O2          6.4636    1.6453    0.2328 O.3       1 <0>        -0.1797
     18 C13         8.7546    0.5343    0.4000 C.3       1 <0>        -0.0716
     19 C14         6.8749   -1.9572    0.4816 C.3       1 <0>        -0.0731
     20 C15        -4.7117    1.0554    1.4452 C.3       1 <0>        -0.1171
     21 H1         -3.9007    5.0416   -1.3249 H         1 <0>         0.0669
     22 H2         -2.6382    4.5445   -2.5021 H         1 <0>         0.0710
     23 H3         -2.1807    5.4679   -1.0308 H         1 <0>         0.0728
     24 H4         -4.6902    3.3381    0.0037 H         1 <0>         0.1231
     25 H5         -2.1910    0.1107    1.2369 H         1 <0>         0.1252
     26 H6         -0.6054    3.2344   -1.2155 H         1 <0>         0.1384
     27 H7          0.0485   -0.1326    0.0084 H         1 <0>         0.4395
     28 H8          2.5141    0.4545    1.0461 H         1 <0>         0.1328
     29 H9          2.5887    0.3391   -0.7449 H         1 <0>         0.1326
     30 H10         9.1350    1.5652    0.3494 H         1 <0>         0.0812
     31 H11         9.1513   -0.0449   -0.4468 H         1 <0>         0.0918
     32 H12         9.0763    0.0706    1.3442 H         1 <0>         0.0917
     33 H13         7.9730   -2.0062    0.5250 H         1 <0>         0.0774
     34 H14         6.5172   -2.5167   -0.3953 H         1 <0>         0.0769
     35 H15         6.4517   -2.3988    1.3959 H         1 <0>         0.0769
     36 H16        -4.3853    0.1224    1.9280 H         1 <0>         0.0656
     37 H17        -5.5302    0.8382    0.7432 H         1 <0>         0.0720
     38 H18        -5.0638    1.7613    2.2119 H         1 <0>         0.0718
@<TRIPOS>BOND
     1    1    2 1
     2    1   21 1
     3    1   22 1
     4    1   23 1
     5    2    7 ar
     6    2    3 ar
     7    3    4 ar
     8    3   24 1
     9    4    5 ar
    10    4   20 1
    11    5    6 ar
    12    5   25 1
    13    6    7 ar
    14    6    8 1
    15    7   26 1
    16    8    9 am
    17    8   27 1
    18    9   10 2
    19    9   11 1
    20   11   12 1
    21   11   28 1
    22   11   29 1
    23   12   13 1
    24   13   17 1
    25   13   14 2
    26   14   15 1
    27   15   16 2
    28   15   19 1
    29   16   17 1
    30   16   18 1
    31   18   30 1
    32   18   31 1
    33   18   32 1
    34   19   33 1
    35   19   34 1
    36   19   35 1
    37   20   36 1
    38   20   37 1
    39   20   38 1
@<TRIPOS>MOLECULE
ZINC39541492
   41    44     0     0     0
SMALL
USER_CHARGES

@<TRIPOS>ATOM
      1 C1         -0.0166    1.3762    0.0096 C.ar      1 <0>        -0.1095
      2 C2          1.1669    2.0886    0.0021 C.ar      1 <0>        -0.1008
      3 C3          2.3884    1.4172   -0.0136 C.ar      1 <0>        -0.0384
      4 C4          2.4150    0.0262   -0.0212 C.ar      1 <0>        -0.1017
      5 C5          1.2190   -0.6877   -0.0132 C.ar      1 <0>        -0.0294
      6 C6          0.0021   -0.0041    0.0020 C.ar      1 <0>        -0.0886
      7 C7          1.2384   -2.1675   -0.0217 C.2       1 <0>         0.1254
      8 C8          0.1486   -2.9914   -0.0209 C.2       1 <0>        -0.2507
      9 C9          0.6082   -4.3084   -0.0316 C.2       1 <0>         0.0505
     10 N1          1.9170   -4.2937   -0.0387 N.2       1 <0>        -0.2838
     11 N2          2.3467   -2.9605   -0.0379 N.pl3     1 <0>        -0.4746
     12 H1          3.2677   -2.6563   -0.0457 H         1 <0>         0.4369
     13 C10         3.6585    2.1848   -0.0225 C.ar      1 <0>        -0.0442
     14 C11         4.8801    1.5151   -0.0440 C.ar      1 <0>        -0.1089
     15 C12         6.0583    2.2341   -0.0522 C.ar      1 <0>        -0.1094
     16 C13         6.0277    3.6169   -0.0392 C.ar      1 <0>        -0.0795
     17 C14         4.8178    4.2868   -0.0179 C.ar      1 <0>        -0.0914
     18 C15         3.6335    3.5779   -0.0153 C.ar      1 <0>        -0.1071
     19 C16         7.3174    4.3964   -0.0478 C.3       1 <0>         0.0842
     20 N3          7.7196    4.6623   -1.4354 N.3       1 <0>        -0.5155
     21 C17         8.9535    5.4859   -1.4830 C.3       1 <0>        -0.0023
     22 C18         9.7212    4.9457   -2.6689 C.2       1 <0>         0.1294
     23 N4          9.2563    3.8022   -2.9959 N.2       1 <0>        -0.4919
     24 C19         8.1510    3.4155   -2.1118 C.3       1 <0>         0.1575
     25 H2         -0.9603    1.9011    0.0259 H         1 <0>         0.1338
     26 H3          1.1457    3.1684    0.0081 H         1 <0>         0.1307
     27 H4          3.3592   -0.4979   -0.0337 H         1 <0>         0.1212
     28 H5         -0.9263   -0.5559    0.0079 H         1 <0>         0.1334
     29 H6         -0.8851   -2.6786   -0.0128 H         1 <0>         0.1522
     30 H7         -0.0122   -5.1925   -0.0338 H         1 <0>         0.1878
     31 H8          4.9051    0.4355   -0.0538 H         1 <0>         0.1231
     32 H9          7.0057    1.7160   -0.0685 H         1 <0>         0.1207
     33 H10         4.7996    5.3666   -0.0078 H         1 <0>         0.1277
     34 H11         2.6893    4.1020   -0.0032 H         1 <0>         0.1286
     35 H12         7.1743    5.3413    0.4765 H         1 <0>         0.0922
     36 H13         8.0949    3.8180    0.4514 H         1 <0>         0.0507
     37 H14         8.7046    6.5359   -1.6368 H         1 <0>         0.1068
     38 H15         9.5304    5.3606   -0.5668 H         1 <0>         0.0743
     39 H16        10.5380    5.4502   -3.1636 H         1 <0>         0.1856
     40 H17         8.4946    2.6882   -1.3762 H         1 <0>         0.0687
     41 H18         7.3294    3.0011   -2.6961 H         1 <0>         0.1064
@<TRIPOS>BOND
     1    1    6 ar
     2    1    2 ar
     3    1   25 1
     4    2    3 ar
     5    2   26 1
     6    3    4 ar
     7    3   13 1
     8    4    5 ar
     9    4   27 1
    10    5    6 ar
    11    5    7 1
    12    6   28 1
    13    7   11 1
    14    7    8 2
    15    8    9 1
    16    8   29 1
    17    9   10 2
    18    9   30 1
    19   10   11 1
    20   11   12 1
    21   13   18 ar
    22   13   14 ar
    23   14   15 ar
    24   14   31 1
    25   15   16 ar
    26   15   32 1
    27   16   17 ar
    28   16   19 1
    29   17   18 ar
    30   17   33 1
    31   18   34 1
    32   19   20 1
    33   19   35 1
    34   19   36 1
    35   20   24 1
    36   20   21 1
    37   21   22 1
    38   21   37 1
    39   21   38 1
    40   22   23 2
    41   22   39 1
    42   23   24 1
    43   24   40 1
    44   24   41 1
@<TRIPOS>MOLECULE
ZINC49024560
   43    45     0     0     0
SMALL
USER_CHARGES

@<TRIPOS>ATOM
      1 C1         -0.0651    1.1981   -0.2887 C.3       1 <0>        -0.1544
      2 C2          0.0659   -0.3261   -0.3150 C.3       1 <0>        -0.1181
      3 C3          0.7133   -0.8048    0.9860 C.3       1 <0>        -0.0856
      4 C4          2.1470   -0.2766    1.0667 C.3       1 <0>        -0.1063
      5 C5          2.7944   -0.7553    2.3677 C.3       1 <0>        -0.1358
      6 C6          2.8121   -2.2850    2.3958 C.3       1 <0>         0.1710
      7 C7          1.3785   -2.8132    2.3151 C.3       1 <0>        -0.1264
      8 C8          0.7311   -2.3345    1.0141 C.3       1 <0>        -0.1387
      9 N1          3.5819   -2.7855    1.2543 N.pl3     1 <0>        -0.5947
     10 C9          2.9572   -3.6973    0.2927 C.3       1 <0>         0.0847
     11 C10         4.9180   -2.3914    1.0819 C.2       1 <0>         0.3570
     12 C11         5.6894   -2.6624    0.0091 C.2       1 <0>        -0.1078
     13 N2          6.9448   -2.0914    0.2370 N.pl3     1 <0>        -0.4186
     14 C12         8.1571   -1.9842   -0.4083 C.2       1 <0>         0.0426
     15 C13         9.1730   -1.3295    0.1526 C.2       1 <0>        -0.1905
     16 S1          8.4574   -0.7951    1.6994 S.3       1 <0>         0.1310
     17 C14         6.8415   -1.4983    1.4666 C.2       1 <0>         0.2060
     18 N3          5.6461   -1.6745    1.9548 N.2       1 <0>        -0.4698
     19 C15         5.2736   -3.4400   -1.2130 C.3       1 <0>         0.1522
     20 O1          5.6217   -4.8156   -1.0436 O.3       1 <0>        -0.5686
     21 H1          0.9235    1.6461   -0.1885 H         1 <0>         0.0555
     22 H2         -0.5264    1.5391   -1.2155 H         1 <0>         0.0516
     23 H3         -0.6859    1.4948    0.5567 H         1 <0>         0.0531
     24 H4         -0.9227   -0.7741   -0.4152 H         1 <0>         0.0598
     25 H5          0.6867   -0.6229   -1.1604 H         1 <0>         0.0579
     26 H6          0.1406   -0.4324    1.8353 H         1 <0>         0.0671
     27 H7          2.7198   -0.6490    0.2174 H         1 <0>         0.0585
     28 H8          2.1344    0.8131    1.0467 H         1 <0>         0.0587
     29 H9          3.8158   -0.3790    2.4252 H         1 <0>         0.0813
     30 H10         2.2216   -0.3830    3.2171 H         1 <0>         0.0669
     31 H11         3.2733   -2.6260    3.3227 H         1 <0>         0.0671
     32 H12         1.3911   -3.9029    2.3351 H         1 <0>         0.0691
     33 H13         0.8057   -2.4408    3.1644 H         1 <0>         0.0781
     34 H14        -0.2903   -2.7108    0.9566 H         1 <0>         0.0611
     35 H15         1.3038   -2.7068    0.1648 H         1 <0>         0.0839
     36 H16         2.5798   -3.1272   -0.5562 H         1 <0>         0.0510
     37 H17         3.6952   -4.4204   -0.0546 H         1 <0>         0.0752
     38 H18         2.1320   -4.2226    0.7734 H         1 <0>         0.0813
     39 H19         8.2858   -2.4366   -1.3805 H         1 <0>         0.1698
     40 H20        10.1699   -1.1649   -0.2288 H         1 <0>         0.2166
     41 H21         4.1959   -3.3521   -1.3502 H         1 <0>         0.0800
     42 H22         5.7851   -3.0410   -2.0889 H         1 <0>         0.0472
     43 H23         5.3829   -5.3770   -1.7938 H         1 <0>         0.3798
@<TRIPOS>BOND
     1    1    2 1
     2    1   21 1
     3    1   22 1
     4    1   23 1
     5    2    3 1
     6    2   24 1
     7    2   25 1
     8    3    8 1
     9    3    4 1
    10    3   26 1
    11    4    5 1
    12    4   27 1
    13    4   28 1
    14    5    6 1
    15    5   29 1
    16    5   30 1
    17    6    7 1
    18    6    9 1
    19    6   31 1
    20    7    8 1
    21    7   32 1
    22    7   33 1
    23    8   34 1
    24    8   35 1
    25    9   10 1
    26    9   11 1
    27   10   36 1
    28   10   37 1
    29   10   38 1
    30   11   18 1
    31   11   12 2
    32   12   13 1
    33   12   19 1
    34   13   17 1
    35   13   14 1
    36   14   15 2
    37   14   39 1
    38   15   16 1
    39   15   40 1
    40   16   17 1
    41   17   18 2
    42   19   20 1
    43   19   41 1
    44   19   42 1
    45   20   43 1
@<TRIPOS>MOLECULE
ZINC61330928
   39    41     0     0     0
SMALL
USER_CHARGES

@<TRIPOS>ATOM
      1 C1         -0.3913    1.7198    0.2225 C.3       1 <0>        -0.1278
      2 C2         -0.1068    0.2255    0.0580 C.3       1 <0>         0.1048
      3 H1          0.4431    0.0603   -0.8685 H         1 <0>         0.0914
      4 C3          0.7154   -0.2606    1.2236 C.ar      1 <0>        -0.0203
      5 C4          0.1062   -0.9335    2.2664 C.ar      1 <0>        -0.1127
      6 C5          0.8603   -1.3793    3.3355 C.ar      1 <0>        -0.0635
      7 C6          2.2239   -1.1528    3.3618 C.ar      1 <0>        -0.1208
      8 C7          2.8331   -0.4809    2.3189 C.ar      1 <0>        -0.0537
      9 C8          2.0794   -0.0387    1.2475 C.ar      1 <0>        -0.0487
     10 N1          2.7326    0.6764    0.1281 N.pl3     1 <0>         0.0355
     11 O1          3.9257    0.8705    0.1490 O.2       1 <0>        -0.1617
     12 O2          2.0730    1.0664   -0.8070 O.3       1 <0>        -0.1556
     13 N2         -1.3761   -0.5125    0.0124 N.3       1 <0>        -0.6756
     14 C9         -1.9653   -0.4641   -1.3323 C.3       1 <0>         0.1518
     15 H2         -1.5326    0.3658   -1.8910 H         1 <0>         0.0880
     16 C10        -3.4786   -0.2742   -1.2223 C.3       1 <0>        -0.1049
     17 C11        -4.1253   -0.4051   -2.6042 C.3       1 <0>        -0.1143
     18 C12        -4.0480   -1.8742   -3.0471 C.3       1 <0>        -0.0442
     19 C13        -2.6554   -2.3625   -2.8133 C.2       1 <0>        -0.1297
     20 C14        -1.6828   -1.7741   -2.0619 C.2       1 <0>        -0.1562
     21 C15        -0.4532   -2.4298   -2.0047 C.2       1 <0>        -0.1506
     22 C16        -0.2721   -3.5901   -2.6759 C.2       1 <0>        -0.1711
     23 S1         -1.8759   -3.8260   -3.4404 S.3       1 <0>         0.0387
     24 H3          0.5505    2.2675    0.2563 H         1 <0>         0.0589
     25 H4         -0.9860    2.0714   -0.6206 H         1 <0>         0.0686
     26 H5         -0.9412    1.8851    1.1491 H         1 <0>         0.0614
     27 H6         -0.9590   -1.1105    2.2459 H         1 <0>         0.1562
     28 H7          0.3843   -1.9044    4.1504 H         1 <0>         0.1446
     29 H8          2.8130   -1.5006    4.1975 H         1 <0>         0.1479
     30 H9          3.8982   -0.3036    2.3397 H         1 <0>         0.1539
     31 H10        -1.2512   -1.4659    0.3184 H         1 <0>         0.3455
     32 H11        -3.8908   -1.0326   -0.5567 H         1 <0>         0.0688
     33 H12        -3.6904    0.7149   -0.8161 H         1 <0>         0.0748
     34 H13        -5.1685   -0.0938   -2.5506 H         1 <0>         0.0780
     35 H14        -3.5908    0.2208   -3.3188 H         1 <0>         0.0690
     36 H15        -4.7493   -2.4710   -2.4640 H         1 <0>         0.0858
     37 H16        -4.2914   -1.9516   -4.1068 H         1 <0>         0.0829
     38 H17         0.3553   -2.0105   -1.4242 H         1 <0>         0.1200
     39 H18         0.6082   -4.2131   -2.7329 H         1 <0>         0.1848
@<TRIPOS>BOND
     1    1    2 1
     2    1   24 1
     3    1   25 1
     4    1   26 1
     5    2    3 1
     6    2    4 1
     7    2   13 1
     8    4    9 ar
     9    4    5 ar
    10    5    6 ar
    11    5   27 1
    12    6    7 ar
    13    6   28 1
    14    7    8 ar
    15    7   29 1
    16    8    9 ar
    17    8   30 1
    18    9   10 1
    19   10   11 2
    20   10   12 1
    21   13   14 1
    22   13   31 1
    23   14   15 1
    24   14   20 1
    25   14   16 1
    26   16   17 1
    27   16   32 1
    28   16   33 1
    29   17   18 1
    30   17   34 1
    31   17   35 1
    32   18   19 1
    33   18   36 1
    34   18   37 1
    35   19   23 1
    36   19   20 2
    37   20   21 1
    38   21   22 2
    39   21   38 1
    40   22   23 1
    41   22   39 1
@<TRIPOS>MOLECULE
ZINC57151326
   39    41     0     0     0
SMALL
USER_CHARGES

@<TRIPOS>ATOM
      1 C1         -0.0167    1.3787    0.0096 C.ar      1 <0>        -0.2349
      2 C2          1.1786    2.0768    0.0020 C.ar      1 <0>         0.0195
      3 C3          2.3735    1.3488   -0.0134 C.ar      1 <0>        -0.1568
      4 C4          2.3103   -0.0556   -0.0203 C.ar      1 <0>         0.4494
      5 N1          1.1393   -0.6724   -0.0129 N.ar      1 <0>        -0.5381
      6 C5          0.0021   -0.0041    0.0020 C.ar      1 <0>         0.1848
      7 N2          3.4788   -0.7971   -0.0354 N.pl3     1 <0>        -0.7132
      8 C6          3.4174   -2.2608   -0.0427 C.3       1 <0>         0.1409
      9 C7          4.8372   -2.8307   -0.0593 C.3       1 <0>        -0.1165
     10 H1          5.4076   -2.4170   -0.8909 H         1 <0>         0.0924
     11 C8          5.5547   -2.5564    1.2888 C.3       1 <0>        -0.1302
     12 C9          6.5820   -3.7149    1.3358 C.3       1 <0>         0.1122
     13 N3          5.8761   -4.8692    0.7505 N.pl3     1 <0>        -0.6353
     14 C10         4.8062   -4.3720   -0.1318 C.3       1 <0>         0.1245
     15 C11         6.1751   -6.2140    0.9895 C.ar      1 <0>         0.2281
     16 C12         5.4351   -7.2119    0.3688 C.ar      1 <0>        -0.1680
     17 C13         5.7326   -8.5397    0.6059 C.ar      1 <0>        -0.1017
     18 C14         6.7677   -8.8762    1.4618 C.ar      1 <0>         0.0357
     19 C15         7.5068   -7.8829    2.0817 C.ar      1 <0>        -0.1019
     20 C16         7.2163   -6.5538    1.8434 C.ar      1 <0>        -0.1685
     21 F1          7.0566  -10.1755    1.6927 F         1 <0>        -0.1456
     22 C17         3.6373    2.0219   -0.0223 C.1       1 <0>         0.2558
     23 N4          4.6400    2.5559   -0.0294 N.1       1 <0>        -0.4167
     24 H2         -0.9569    1.9099    0.0259 H         1 <0>         0.1445
     25 H3          1.1887    3.1567    0.0073 H         1 <0>         0.1435
     26 H4         -0.9316   -0.5468    0.0084 H         1 <0>         0.1661
     27 H5          4.3384   -0.3477   -0.0412 H         1 <0>         0.4092
     28 H6          2.8974   -2.6071    0.8504 H         1 <0>         0.0758
     29 H7          2.8804   -2.5976   -0.9294 H         1 <0>         0.0758
     30 H8          6.0570   -1.5891    1.2743 H         1 <0>         0.0831
     31 H9          4.8561   -2.6196    2.1231 H         1 <0>         0.0818
     32 H10         7.4612   -3.4666    0.7412 H         1 <0>         0.0643
     33 H11         6.8673   -3.9273    2.3661 H         1 <0>         0.0745
     34 H12         3.8402   -4.7399    0.2142 H         1 <0>         0.0694
     35 H13         4.9843   -4.6986   -1.1563 H         1 <0>         0.0682
     36 H14         4.6274   -6.9499   -0.2986 H         1 <0>         0.1294
     37 H15         5.1571   -9.3161    0.1237 H         1 <0>         0.1350
     38 H16         8.3135   -8.1476    2.7492 H         1 <0>         0.1346
     39 H17         7.7959   -5.7793    2.3236 H         1 <0>         0.1289
@<TRIPOS>BOND
     1    1    6 ar
     2    1    2 ar
     3    1   24 1
     4    2    3 ar
     5    2   25 1
     6    3    4 ar
     7    3   22 1
     8    4    5 ar
     9    4    7 1
    10    5    6 ar
    11    6   26 1
    12    7    8 1
    13    7   27 1
    14    8    9 1
    15    8   28 1
    16    8   29 1
    17    9   10 1
    18    9   14 1
    19    9   11 1
    20   11   12 1
    21   11   30 1
    22   11   31 1
    23   12   13 1
    24   12   32 1
    25   12   33 1
    26   13   14 1
    27   13   15 1
    28   14   34 1
    29   14   35 1
    30   15   20 ar
    31   15   16 ar
    32   16   17 ar
    33   16   36 1
    34   17   18 ar
    35   17   37 1
    36   18   19 ar
    37   18   21 1
    38   19   20 ar
    39   19   38 1
    40   20   39 1
    41   22   23 3
@<TRIPOS>MOLECULE
ZINC05931525
   52    55     0     0     0
SMALL
USER_CHARGES
N-[2-(1,3,3-trimethylindolin-2-ylidene)ethylideneamino]-4,5,6,7-tetrahydrobenzothiophene-2-carboxamide
@<TRIPOS>ATOM
      1 C1          1.6856   -1.2163    1.1763 C.3       1 <0>        -0.1307
      2 C2          1.4188   -0.3257   -0.0388 C.3       1 <0>         0.0023
      3 C3          2.3277    0.8817   -0.0189 C.ar      1 <0>        -0.1410
      4 C4          3.6987    1.0136   -0.0567 C.ar      1 <0>        -0.0601
      5 C5          4.2732    2.2719   -0.0248 C.ar      1 <0>        -0.1480
      6 C6          3.4684    3.3947    0.0450 C.ar      1 <0>        -0.0799
      7 C7          2.0959    3.2666    0.0830 C.ar      1 <0>        -0.1503
      8 C8          1.5091    2.0015    0.0512 C.ar      1 <0>         0.1548
      9 N1          0.1677    1.6251    0.0779 N.pl3     1 <0>        -0.5405
     10 C9          0.0231    0.2568    0.0278 C.2       1 <0>         0.2158
     11 C10        -1.1330   -0.4288    0.0358 C.2       1 <0>        -0.2874
     12 C11        -2.4062    0.2845   -0.0476 C.2       1 <0>         0.1014
     13 N2         -3.5270   -0.3681    0.0697 N.2       1 <0>        -0.2457
     14 N3         -3.5125   -1.7538    0.2758 N.am      1 <0>        -0.5788
     15 C12        -4.6725   -2.4292    0.3972 C.2       1 <0>         0.6225
     16 O1         -5.7331   -1.8351    0.3277 O.2       1 <0>        -0.4943
     17 C13        -4.6573   -3.8788    0.6129 C.2       1 <0>        -0.2414
     18 C14        -5.7210   -4.7487    0.7672 C.2       1 <0>        -0.0551
     19 C15        -5.4444   -6.0933    0.9563 C.2       1 <0>        -0.1392
     20 C16        -4.1269   -6.4517    0.9871 C.2       1 <0>        -0.1506
     21 S1         -3.2608   -4.9815    0.7527 S.3       1 <0>         0.1343
     22 C17        -3.5699   -7.8280    1.1832 C.3       1 <0>        -0.0454
     23 C18        -4.6900   -8.7321    1.7174 C.3       1 <0>        -0.1149
     24 C19        -5.9409   -8.5256    0.8588 C.3       1 <0>        -0.1221
     25 C20        -6.5376   -7.1443    1.1307 C.3       1 <0>        -0.0587
     26 C21        -0.9507    2.5690    0.1446 C.3       1 <0>         0.0712
     27 C22         1.6064   -1.1189   -1.3336 C.3       1 <0>        -0.1295
     28 H1          0.9784   -2.0458    1.1811 H         1 <0>         0.0660
     29 H2          2.7023   -1.6059    1.1251 H         1 <0>         0.0699
     30 H3          1.5660   -0.6318    2.0885 H         1 <0>         0.0611
     31 H4          4.3246    0.1351   -0.1108 H         1 <0>         0.1261
     32 H5          5.3477    2.3772   -0.0539 H         1 <0>         0.1288
     33 H6          3.9172    4.3767    0.0702 H         1 <0>         0.1298
     34 H7          1.4739    4.1478    0.1378 H         1 <0>         0.1234
     35 H8         -1.1213   -1.5065    0.1038 H         1 <0>         0.1320
     36 H9         -2.4174    1.3527   -0.2065 H         1 <0>         0.1855
     37 H10        -2.6676   -2.2271    0.3312 H         1 <0>         0.3836
     38 H11        -6.7395   -4.3906    0.7377 H         1 <0>         0.1469
     39 H12        -3.2071   -8.2163    0.2316 H         1 <0>         0.0888
     40 H13        -2.7514   -7.7937    1.9023 H         1 <0>         0.0856
     41 H14        -4.3763   -9.7745    1.6614 H         1 <0>         0.0759
     42 H15        -4.9078   -8.4712    2.7531 H         1 <0>         0.0697
     43 H16        -5.6735   -8.6033   -0.1950 H         1 <0>         0.0666
     44 H17        -6.6777   -9.2910    1.1026 H         1 <0>         0.0718
     45 H18        -7.3464   -6.9506    0.4262 H         1 <0>         0.0778
     46 H19        -6.9237   -7.1072    2.1494 H         1 <0>         0.0782
     47 H20        -1.5926    2.3126    0.9875 H         1 <0>         0.0819
     48 H21        -0.5655    3.5801    0.2757 H         1 <0>         0.0874
     49 H22        -1.5262    2.5163   -0.7796 H         1 <0>         0.0773
     50 H23         1.4312   -0.4657   -2.1884 H         1 <0>         0.0611
     51 H24         2.6234   -1.5088   -1.3767 H         1 <0>         0.0698
     52 H25         0.8984   -1.9473   -1.3581 H         1 <0>         0.0668
@<TRIPOS>BOND
     1    1    2 1
     2    1   28 1
     3    1   29 1
     4    1   30 1
     5    2   10 1
     6    2    3 1
     7    2   27 1
     8    3    8 ar
     9    3    4 ar
    10    4    5 ar
    11    4   31 1
    12    5    6 ar
    13    5   32 1
    14    6    7 ar
    15    6   33 1
    16    7    8 ar
    17    7   34 1
    18    8    9 1
    19    9   10 1
    20    9   26 1
    21   10   11 2
    22   11   12 1
    23   11   35 1
    24   12   13 2
    25   12   36 1
    26   13   14 1
    27   14   15 am
    28   14   37 1
    29   15   16 2
    30   15   17 1
    31   17   21 1
    32   17   18 2
    33   18   19 1
    34   18   38 1
    35   19   25 1
    36   19   20 2
    37   20   21 1
    38   20   22 1
    39   22   23 1
    40   22   39 1
    41   22   40 1
    42   23   24 1
    43   23   41 1
    44   23   42 1
    45   24   25 1
    46   24   43 1
    47   24   44 1
    48   25   45 1
    49   25   46 1
    50   26   47 1
    51   26   48 1
    52   26   49 1
    53   27   50 1
    54   27   51 1
    55   27   52 1
@<TRIPOS>MOLECULE
ZINC14479949
   57    61     0     0     0
SMALL
USER_CHARGES
(3aR,4S,9bS)-4-(m-tolyl)-8-(1-piperidylsulfonyl)-3a,4,5,9b-tetrahydro-3H-cyclopenta[c]quinoline
@<TRIPOS>ATOM
      1 C1         -0.8522    1.2627   -4.9203 C.3       1 <0>        -0.1185
      2 C2         -1.1419    1.8683   -3.5711 C.ar      1 <0>        -0.0827
      3 C3         -2.0728    2.8839   -3.4546 C.ar      1 <0>        -0.1217
      4 C4         -2.3384    3.4393   -2.2172 C.ar      1 <0>        -0.1147
      5 C5         -1.6767    2.9761   -1.0951 C.ar      1 <0>        -0.1156
      6 C6         -0.7426    1.9642   -1.2123 C.ar      1 <0>        -0.0830
      7 C7         -0.4772    1.4083   -2.4500 C.ar      1 <0>        -0.1043
      8 C8         -0.0178    1.4625    0.0101 C.3       1 <0>         0.1978
      9 H1         -0.6539    1.5798    0.8874 H         1 <0>         0.1000
     10 C9          1.2747    2.2605    0.2034 C.3       1 <0>        -0.0976
     11 H2          1.7710    2.0327    1.1467 H         1 <0>         0.0998
     12 C10         0.9206    3.7667    0.0316 C.3       1 <0>        -0.0943
     13 C11         0.9277    3.9598   -1.4724 C.2       1 <0>        -0.1543
     14 C12         1.6377    3.0230   -2.0521 C.2       1 <0>        -0.1537
     15 C13         2.1956    2.0743   -1.0180 C.3       1 <0>        -0.0118
     16 H3          3.2063    2.3813   -0.7490 H         1 <0>         0.0923
     17 C14         2.2176    0.6668   -1.5237 C.ar      1 <0>        -0.1543
     18 C15         3.1856    0.3072   -2.4517 C.ar      1 <0>         0.0224
     19 C16         3.2433   -0.9815   -2.9419 C.ar      1 <0>        -0.7227
     20 C17         2.3349   -1.9322   -2.5130 C.ar      1 <0>         0.0203
     21 C18         1.3672   -1.5864   -1.5911 C.ar      1 <0>        -0.2088
     22 C19         1.3083   -0.2891   -1.0978 C.ar      1 <0>         0.2732
     23 N1          0.3201    0.0461   -0.1659 N.pl3     1 <0>        -0.7373
     24 S1          4.4792   -1.4175   -4.1197 S.o2      1 <0>         2.6918
     25 O1          3.9820   -2.5415   -4.8328 O.2       1 <0>        -0.9596
     26 O2          4.8648   -0.2134   -4.7683 O.2       1 <0>        -0.9593
     27 N2          5.8009   -1.9422   -3.2710 N.pl3     1 <0>        -0.9979
     28 C20         6.8494   -0.9986   -2.8600 C.3       1 <0>         0.1197
     29 C21         7.0649   -1.1372   -1.3452 C.3       1 <0>        -0.1356
     30 C22         7.3692   -2.5992   -1.0107 C.3       1 <0>        -0.1179
     31 C23         6.1785   -3.4740   -1.4095 C.3       1 <0>        -0.1357
     32 C24         5.9502   -3.3611   -2.9201 C.3       1 <0>         0.1198
     33 H4         -1.5229    0.4208   -5.0922 H         1 <0>         0.0695
     34 H5         -1.0051    2.0133   -5.6958 H         1 <0>         0.0668
     35 H6          0.1808    0.9161   -4.9488 H         1 <0>         0.0651
     36 H7         -2.5922    3.2434   -4.3306 H         1 <0>         0.1178
     37 H8         -3.0654    4.2328   -2.1263 H         1 <0>         0.1197
     38 H9         -1.8872    3.4073   -0.1276 H         1 <0>         0.1182
     39 H10         0.2498    0.6147   -2.5409 H         1 <0>         0.1283
     40 H11         1.6759    4.3953    0.5032 H         1 <0>         0.0794
     41 H12        -0.0664    3.9810    0.4417 H         1 <0>         0.0756
     42 H13         0.4193    4.7578   -1.9931 H         1 <0>         0.1238
     43 H14         1.8009    2.9415   -3.1166 H         1 <0>         0.1238
     44 H15         3.8998    1.0421   -2.7926 H         1 <0>         0.1349
     45 H16         2.3828   -2.9405   -2.8970 H         1 <0>         0.1377
     46 H17         0.6555   -2.3251   -1.2532 H         1 <0>         0.1310
     47 H18        -0.1303   -0.6406    0.3503 H         1 <0>         0.4088
     48 H19         7.7756   -1.2297   -3.3862 H         1 <0>         0.0753
     49 H20         6.5376    0.0191   -3.0945 H         1 <0>         0.0898
     50 H21         6.1647   -0.8228   -0.8170 H         1 <0>         0.0673
     51 H22         7.9035   -0.5118   -1.0390 H         1 <0>         0.0747
     52 H23         7.5491   -2.6969    0.0599 H         1 <0>         0.0642
     53 H24         8.2551   -2.9201   -1.5586 H         1 <0>         0.0651
     54 H25         5.2866   -3.1377   -0.8807 H         1 <0>         0.0673
     55 H26         6.3864   -4.5120   -1.1496 H         1 <0>         0.0752
     56 H27         5.0449   -3.9026   -3.1944 H         1 <0>         0.0897
     57 H28         6.8031   -3.7815   -3.4531 H         1 <0>         0.0750
@<TRIPOS>BOND
     1    1    2 1
     2    1   33 1
     3    1   34 1
     4    1   35 1
     5    2    7 ar
     6    2    3 ar
     7    3    4 ar
     8    3   36 1
     9    4    5 ar
    10    4   37 1
    11    5    6 ar
    12    5   38 1
    13    6    7 ar
    14    6    8 1
    15    7   39 1
    16    8    9 1
    17    8   23 1
    18    8   10 1
    19   10   11 1
    20   10   15 1
    21   10   12 1
    22   12   13 1
    23   12   40 1
    24   12   41 1
    25   13   14 2
    26   13   42 1
    27   14   15 1
    28   14   43 1
    29   15   16 1
    30   15   17 1
    31   17   22 ar
    32   17   18 ar
    33   18   19 ar
    34   18   44 1
    35   19   20 ar
    36   19   24 1
    37   20   21 ar
    38   20   45 1
    39   21   22 ar
    40   21   46 1
    41   22   23 1
    42   23   47 1
    43   24   25 2
    44   24   26 2
    45   24   27 1
    46   27   32 1
    47   27   28 1
    48   28   29 1
    49   28   48 1
    50   28   49 1
    51   29   30 1
    52   29   50 1
    53   29   51 1
    54   30   31 1
    55   30   52 1
    56   30   53 1
    57   31   32 1
    58   31   54 1
    59   31   55 1
    60   32   56 1
    61   32   57 1
@<TRIPOS>MOLECULE
ZINC00757934
   57    60     0     0     0
SMALL
USER_CHARGES

@<TRIPOS>ATOM
      1 C1         -0.0184    1.5028    0.0103 C.3       1 <0>        -0.1147
      2 C2          0.0021   -0.0041    0.0020 C.2       1 <0>         0.2292
      3 C3         -1.1555   -0.6874    0.0038 C.2       1 <0>        -0.2489
      4 C4         -1.1739   -2.1877   -0.0122 C.3       1 <0>         0.0795
      5 H1         -1.9389   -2.5436    0.6780 H         1 <0>         0.0927
      6 C5          0.1638   -2.7495    0.3989 C.2       1 <0>        -0.2644
      7 C6          1.2717   -1.9787    0.3761 C.2       1 <0>         0.2099
      8 N1          1.1976   -0.6667   -0.0130 N.pl3     1 <0>        -0.6320
      9 C7          2.6164   -2.5393    0.7683 C.3       1 <0>        -0.0891
     10 C8          2.4294   -3.6328    1.8224 C.3       1 <0>        -0.0519
     11 C9          1.5207   -4.7201    1.2396 C.3       1 <0>        -0.1596
     12 C10         0.2235   -4.0939    0.8060 C.2       1 <0>         0.4037
     13 O1         -0.7914   -4.7620    0.8083 O.2       1 <0>        -0.4623
     14 C11         3.7881   -4.2370    2.1827 C.3       1 <0>        -0.1421
     15 C12         1.7801   -3.0359    3.0726 C.3       1 <0>        -0.1522
     16 C13        -1.5029   -2.6638   -1.4036 C.ar      1 <0>        -0.0627
     17 C14        -0.6787   -2.3288   -2.4616 C.ar      1 <0>        -0.1111
     18 C15        -0.9805   -2.7655   -3.7380 C.ar      1 <0>        -0.1256
     19 C16        -2.1062   -3.5375   -3.9563 C.ar      1 <0>        -0.1239
     20 C17        -2.9299   -3.8732   -2.8981 C.ar      1 <0>        -0.1216
     21 C18        -2.6258   -3.4401   -1.6211 C.ar      1 <0>        -0.0902
     22 C19        -2.3795    0.0213    0.0215 C.2       1 <0>         0.5202
     23 O2         -2.3779    1.2381    0.0350 O.2       1 <0>        -0.5244
     24 O3         -3.5490   -0.6519    0.0235 O.3       1 <0>        -0.3358
     25 C20        -4.7464    0.1278    0.0418 C.3       1 <0>         0.0846
     26 C21        -5.2166    0.3401    1.4956 C.3       1 <0>        -0.1416
     27 C22        -6.7615    0.2702    1.4092 C.3       1 <0>        -0.1232
     28 C23        -6.9950   -0.8449    0.3599 C.3       1 <0>        -0.1231
     29 C24        -5.8772   -0.6256   -0.6803 C.3       1 <0>        -0.1231
     30 H2          1.0042    1.8801    0.0026 H         1 <0>         0.0621
     31 H3         -0.5455    1.8639   -0.8728 H         1 <0>         0.1008
     32 H4         -0.5286    1.8543    0.9071 H         1 <0>         0.1025
     33 H5          2.0002   -0.2028   -0.2984 H         1 <0>         0.4200
     34 H6          3.1037   -2.9617   -0.1104 H         1 <0>         0.1004
     35 H7          3.2363   -1.7420    1.1785 H         1 <0>         0.0919
     36 H8          2.0082   -5.1809    0.3805 H         1 <0>         0.1006
     37 H9          1.3246   -5.4771    1.9989 H         1 <0>         0.0981
     38 H10         4.4382   -3.4579    2.5808 H         1 <0>         0.0617
     39 H11         3.6520   -5.0154    2.9335 H         1 <0>         0.0650
     40 H12         4.2421   -4.6682    1.2905 H         1 <0>         0.0611
     41 H13         0.8091   -2.6148    2.8119 H         1 <0>         0.0593
     42 H14         1.6481   -3.8168    3.8216 H         1 <0>         0.0640
     43 H15         2.4203   -2.2509    3.4751 H         1 <0>         0.0609
     44 H16         0.2008   -1.7257   -2.2911 H         1 <0>         0.1081
     45 H17        -0.3369   -2.5032   -4.5647 H         1 <0>         0.1164
     46 H18        -2.3423   -3.8781   -4.9536 H         1 <0>         0.1179
     47 H19        -3.8096   -4.4760   -3.0688 H         1 <0>         0.1196
     48 H20        -3.2673   -3.7055   -0.7938 H         1 <0>         0.1217
     49 H21        -4.5723    1.0902   -0.4394 H         1 <0>         0.0849
     50 H22        -4.8343   -0.4518    2.1397 H         1 <0>         0.0766
     51 H23        -4.8988    1.3168    1.8606 H         1 <0>         0.0716
     52 H24        -7.1900   -0.0093    2.3717 H         1 <0>         0.0716
     53 H25        -7.1724    1.2186    1.0630 H         1 <0>         0.0699
     54 H26        -6.9000   -1.8282    0.8206 H         1 <0>         0.0701
     55 H27        -7.9751   -0.7331   -0.1040 H         1 <0>         0.0701
     56 H28        -6.2524   -0.0285   -1.5114 H         1 <0>         0.0752
     57 H29        -5.5126   -1.5861   -1.0447 H         1 <0>         0.0815
@<TRIPOS>BOND
     1    1    2 1
     2    1   30 1
     3    1   31 1
     4    1   32 1
     5    2    8 1
     6    2    3 2
     7    3    4 1
     8    3   22 1
     9    4    5 1
    10    4    6 1
    11    4   16 1
    12    6   12 1
    13    6    7 2
    14    7    8 1
    15    7    9 1
    16    8   33 1
    17    9   10 1
    18    9   34 1
    19    9   35 1
    20   10   11 1
    21   10   14 1
    22   10   15 1
    23   11   12 1
    24   11   36 1
    25   11   37 1
    26   12   13 2
    27   14   38 1
    28   14   39 1
    29   14   40 1
    30   15   41 1
    31   15   42 1
    32   15   43 1
    33   16   21 ar
    34   16   17 ar
    35   17   18 ar
    36   17   44 1
    37   18   19 ar
    38   18   45 1
    39   19   20 ar
    40   19   46 1
    41   20   21 ar
    42   20   47 1
    43   21   48 1
    44   22   23 2
    45   22   24 1
    46   24   25 1
    47   25   29 1
    48   25   26 1
    49   25   49 1
    50   26   27 1
    51   26   50 1
    52   26   51 1
    53   27   28 1
    54   27   52 1
    55   27   53 1
    56   28   29 1
    57   28   54 1
    58   28   55 1
    59   29   56 1
    60   29   57 1
@<TRIPOS>MOLECULE
ZINC06706719
   48    51     0     0     0
SMALL
USER_CHARGES
(4Z)-2-(2,4-dimethylphenyl)-4-[[(2-fluorophenyl)amino]methylene]isoquinoline-1,3-dione
@<TRIPOS>ATOM
      1 C1          2.6705   -8.2629   -2.1139 C.3       1 <0>        -0.1191
      2 C2          2.6347   -6.7976   -1.7634 C.ar      1 <0>        -0.0675
      3 C3          2.5720   -6.4063   -0.4384 C.ar      1 <0>        -0.1181
      4 C4          2.5439   -5.0643   -0.1139 C.ar      1 <0>        -0.0870
      5 C5          2.5689   -4.1075   -1.1200 C.ar      1 <0>         0.1078
      6 C6          2.6323   -4.5034   -2.4491 C.ar      1 <0>        -0.0550
      7 C7          2.6650   -5.8473   -2.7672 C.ar      1 <0>        -0.1151
      8 C8          2.6649   -3.4682   -3.5438 C.3       1 <0>        -0.1176
      9 N1          2.5361   -2.7453   -0.7942 N.am      1 <0>        -0.5087
     10 C9          1.3427   -2.1372   -0.6963 C.2       1 <0>         0.5677
     11 O1          0.3272   -2.7779   -0.8907 O.2       1 <0>        -0.4885
     12 C10         1.2433   -0.7116   -0.3589 C.ar      1 <0>        -0.1653
     13 C11         0.0067   -0.0735   -0.2555 C.ar      1 <0>        -0.0318
     14 C12        -0.0448    1.2661    0.0637 C.ar      1 <0>        -0.1476
     15 C13         1.1196    1.9877    0.2834 C.ar      1 <0>        -0.0659
     16 C14         2.3526    1.3760    0.1862 C.ar      1 <0>        -0.1465
     17 C15         2.4250    0.0254   -0.1348 C.ar      1 <0>         0.0519
     18 C16         3.7190   -0.6785   -0.2511 C.2       1 <0>        -0.3141
     19 C17         4.9087   -0.0147   -0.0447 C.2       1 <0>         0.2678
     20 N2          6.0708   -0.7142    0.0436 N.pl3     1 <0>        -0.6272
     21 C18         7.2897   -0.0357    0.1405 C.ar      1 <0>         0.1194
     22 C19         7.3149    1.3527    0.1468 C.ar      1 <0>        -0.1451
     23 C20         8.5204    2.0201    0.2427 C.ar      1 <0>        -0.0896
     24 C21         9.7025    1.3080    0.3324 C.ar      1 <0>        -0.1147
     25 C22         9.6831   -0.0746    0.3266 C.ar      1 <0>        -0.1167
     26 C23         8.4795   -0.7499    0.2367 C.ar      1 <0>         0.0661
     27 F1          8.4599   -2.1007    0.2371 F         1 <0>        -0.1322
     28 C24         3.6994   -2.1050   -0.5935 C.2       1 <0>         0.5835
     29 O2          4.7483   -2.7144   -0.6971 O.2       1 <0>        -0.5215
     30 H1          2.6388   -8.8614   -1.1915 H         1 <0>         0.0681
     31 H2          3.5966   -8.4858   -2.6640 H         1 <0>         0.0731
     32 H3          1.8022   -8.5110   -2.7420 H         1 <0>         0.0733
     33 H4          2.5488   -7.1510    0.3435 H         1 <0>         0.1297
     34 H5          2.4988   -4.7593    0.9212 H         1 <0>         0.1232
     35 H6          2.7139   -6.1560   -3.8010 H         1 <0>         0.1296
     36 H7          2.7146   -3.9699   -4.5215 H         1 <0>         0.0736
     37 H8          3.5492   -2.8266   -3.4155 H         1 <0>         0.0679
     38 H9          1.7547   -2.8525   -3.4934 H         1 <0>         0.0691
     39 H10        -0.9053   -0.6268   -0.4244 H         1 <0>         0.1390
     40 H11        -1.0020    1.7607    0.1392 H         1 <0>         0.1326
     41 H12         1.0605    3.0369    0.5326 H         1 <0>         0.1318
     42 H13         3.2556    1.9429    0.3580 H         1 <0>         0.1288
     43 H14         4.9180    1.0813    0.0486 H         1 <0>         0.1722
     44 H15         6.0525   -1.8140    0.0388 H         1 <0>         0.4605
     45 H16         6.3926    1.9103    0.0765 H         1 <0>         0.1373
     46 H17         8.5398    3.0999    0.2479 H         1 <0>         0.1384
     47 H18        10.6433    1.8332    0.4075 H         1 <0>         0.1385
     48 H19        10.6081   -0.6275    0.3972 H         1 <0>         0.1438
@<TRIPOS>BOND
     1    1    2 1
     2    1   30 1
     3    1   31 1
     4    1   32 1
     5    2    7 ar
     6    2    3 ar
     7    3    4 ar
     8    3   33 1
     9    4    5 ar
    10    4   34 1
    11    5    6 ar
    12    5    9 1
    13    6    7 ar
    14    6    8 1
    15    7   35 1
    16    8   36 1
    17    8   37 1
    18    8   38 1
    19    9   28 am
    20    9   10 am
    21   10   11 2
    22   10   12 1
    23   12   17 ar
    24   12   13 ar
    25   13   14 ar
    26   13   39 1
    27   14   15 ar
    28   14   40 1
    29   15   16 ar
    30   15   41 1
    31   16   17 ar
    32   16   42 1
    33   17   18 1
    34   18   19 2
    35   18   28 1
    36   19   20 1
    37   19   43 1
    38   20   21 1
    39   20   44 1
    40   21   26 ar
    41   21   22 ar
    42   22   23 ar
    43   22   45 1
    44   23   24 ar
    45   23   46 1
    46   24   25 ar
    47   24   47 1
    48   25   26 ar
    49   25   48 1
    50   26   27 1
    51   28   29 2
@<TRIPOS>MOLECULE
ZINC49611764
   52    55     0     0     0
SMALL
NO_CHARGES

@<TRIPOS>ATOM
      1 C1          0.9495   -6.8234   -6.6837 C.3       1 <0>        -0.1185
      2 C2          0.7577   -6.5038   -5.2235 C.ar      1 <0>        -0.0750
      3 C3          0.7499   -5.1863   -4.8018 C.ar      1 <0>        -0.1218
      4 C4          0.5747   -4.8877   -3.4659 C.ar      1 <0>        -0.0974
      5 C5          0.4054   -5.9165   -2.5410 C.ar      1 <0>        -0.0328
      6 C6          0.4141   -7.2420   -2.9716 C.ar      1 <0>        -0.0773
      7 C7          0.5845   -7.5286   -4.3108 C.ar      1 <0>        -0.1234
      8 C8          0.2170   -5.6018   -1.1036 C.2       1 <0>         0.1092
      9 C9          0.0969   -4.3128   -0.6578 C.2       1 <0>        -0.2156
     10 S1         -0.0994   -4.5875    1.0954 S.3       1 <0>         0.1284
     11 C10        -0.0108   -6.2678    1.0815 C.2       1 <0>         0.0487
     12 N1          0.1507   -6.5540   -0.1839 N.2       1 <0>        -0.4830
     13 C11        -0.1011   -7.2167    2.2487 C.3       1 <0>        -0.0354
     14 H1         -0.1002   -6.6505    3.1802 H         1 <0>         0.1119
     15 C12         1.0772   -8.1554    2.2280 C.2       1 <0>         0.3737
     16 N2          2.2155   -7.7395    1.7591 N.2       1 <0>        -0.6321
     17 N3          0.9736   -9.4108    2.6842 N.2       1 <0>        -0.4869
     18 C13        -0.1307   -9.9058    3.1668 C.2       1 <0>         0.1526
     19 C14        -1.3921   -9.0890    3.2569 C.3       1 <0>         0.0213
     20 C15        -1.3927   -8.0340    2.1465 C.3       1 <0>        -0.0254
     21 C16        -2.5991   -7.1102    2.3126 C.3       1 <0>        -0.1139
     22 C17        -3.8876   -7.9294    2.2125 C.3       1 <0>        -0.1213
     23 C18        -3.9505   -8.6159    0.8465 C.3       1 <0>        -0.1207
     24 C19        -2.7445   -9.5435    0.6857 C.3       1 <0>        -0.1232
     25 C20        -1.4553   -8.7251    0.7845 C.3       1 <0>        -0.1129
     26 C21        -1.4526   -8.4207    4.5670 C.1       1 <0>         0.2047
     27 N4         -1.4993   -7.9050    5.5781 N.1       1 <0>        -0.3906
     28 S2         -0.1473  -11.4792    3.6959 S.3       1 <0>         0.0690
     29 C22         1.5462  -12.0589    3.4020 C.3       1 <0>        -0.1503
     30 H2         -0.0209   -6.8562   -7.1790 H         1 <0>         0.0729
     31 H3          1.5675   -6.0537   -7.1460 H         1 <0>         0.0679
     32 H4          1.4406   -7.7915   -6.7822 H         1 <0>         0.0681
     33 H5          0.8816   -4.3900   -5.5193 H         1 <0>         0.1262
     34 H6          0.5691   -3.8588   -3.1377 H         1 <0>         0.1237
     35 H7          0.2834   -8.0431   -2.2592 H         1 <0>         0.1308
     36 H8          0.5870   -8.5552   -4.6462 H         1 <0>         0.1250
     37 H9          0.1156   -3.3865   -1.2129 H         1 <0>         0.2006
     38 H10        -2.5527   -6.6238    3.2870 H         1 <0>         0.0676
     39 H11        -2.5879   -6.3535    1.5281 H         1 <0>         0.0754
     40 H12        -3.9007   -8.6838    2.9991 H         1 <0>         0.0655
     41 H13        -4.7476   -7.2696    2.3275 H         1 <0>         0.0716
     42 H14        -4.8690   -9.1983    0.7746 H         1 <0>         0.0684
     43 H15        -3.9361   -7.8615    0.0598 H         1 <0>         0.0632
     44 H16        -2.7579  -10.2969    1.4733 H         1 <0>         0.0656
     45 H17        -2.7901  -10.0336   -0.2869 H         1 <0>         0.0717
     46 H18        -1.4407   -7.9738   -0.0051 H         1 <0>         0.0944
     47 H19        -0.5959   -9.3862    0.6727 H         1 <0>         0.0698
     48 H20         1.6356  -13.0970    3.7223 H         1 <0>         0.1132
     49 H21         1.7760  -11.9856    2.3391 H         1 <0>         0.0991
     50 H22         2.2446  -11.4427    3.9682 H         1 <0>         0.0968
     51 H23         2.3007   -6.8322    1.4268 H         1 <0>         0.3464
     52 H24        -2.2574   -9.7414    3.1398 H         1 <0>         0.1540
@<TRIPOS>BOND
     1    1    2 1
     2    1   30 1
     3    1   31 1
     4    1   32 1
     5    2    7 ar
     6    2    3 ar
     7    3    4 ar
     8    3   33 1
     9    4    5 ar
    10    4   34 1
    11    5    6 ar
    12    5    8 1
    13    6    7 ar
    14    6   35 1
    15    7   36 1
    16    8   12 1
    17    8    9 2
    18    9   10 1
    19    9   37 1
    20   10   11 1
    21   11   12 2
    22   11   13 1
    23   13   14 1
    24   13   20 1
    25   13   15 1
    26   15   16 2
    27   15   17 1
    28   16   51 1
    29   17   18 2
    30   18   19 1
    31   18   28 1
    32   19   20 1
    33   19   26 1
    34   19   52 1
    35   20   25 1
    36   20   21 1
    37   21   22 1
    38   21   38 1
    39   21   39 1
    40   22   23 1
    41   22   40 1
    42   22   41 1
    43   23   24 1
    44   23   42 1
    45   23   43 1
    46   24   25 1
    47   24   44 1
    48   24   45 1
    49   25   46 1
    50   25   47 1
    51   26   27 3
    52   28   29 1
    53   29   48 1
    54   29   49 1
    55   29   50 1
@<TRIPOS>MOLECULE
ZINC04151463
   44    47     0     0     0
SMALL
USER_CHARGES
bromo-dimethyl-(4-nitrophenyl)-BLAH
@<TRIPOS>ATOM
      1 C1         -5.0811    5.0871    1.5771 C.3       1 <0>        -0.1140
      2 C2         -3.5872    5.2088    1.4206 C.ar      1 <0>        -0.1092
      3 C3         -2.9312    6.3414    1.8676 C.ar      1 <0>        -0.0602
      4 C4         -1.5645    6.4503    1.7321 C.ar      1 <0>        -0.1313
      5 C5         -0.8201    5.4251    1.1433 C.ar      1 <0>         0.1673
      6 C6         -1.4977    4.2933    0.6833 C.ar      1 <0>        -0.1114
      7 C7         -2.8653    4.1897    0.8293 C.ar      1 <0>        -0.0313
      8 C8         -3.5779    2.9554    0.3397 C.3       1 <0>        -0.1313
      9 C9         -0.7006    3.2259    0.0402 C.3       1 <0>        -0.0287
     10 H1         -0.5373    3.5025   -1.0014 H         1 <0>         0.0854
     11 C10        -1.1139    1.8018    0.0764 C.2       1 <0>        -0.1634
     12 C11        -0.0214    1.0456    0.0969 C.2       1 <0>        -0.1613
     13 C12         1.2267    1.9320    0.1039 C.3       1 <0>        -0.0895
     14 C13         0.6879    3.2122    0.7525 C.3       1 <0>        -0.0930
     15 H2          0.5911    3.1034    1.8327 H         1 <0>         0.1013
     16 C14         1.3454    4.5262    0.3852 C.3       1 <0>         0.1457
     17 H3          1.3065    4.6722   -0.6943 H         1 <0>         0.0810
     18 N1          0.5622    5.5894    1.0755 N.pl3     1 <0>        -0.6406
     19 C15         2.7775    4.5327    0.8544 C.ar      1 <0>        -0.0308
     20 C16         3.0703    4.8082    2.1770 C.ar      1 <0>        -0.0876
     21 C17         4.3836    4.8099    2.6083 C.ar      1 <0>        -0.0553
     22 C18         5.4048    4.5450    1.7151 C.ar      1 <0>        -0.0419
     23 C19         5.1124    4.2747    0.3913 C.ar      1 <0>        -0.0540
     24 C20         3.7988    4.2688   -0.0391 C.ar      1 <0>        -0.1089
     25 N2          6.8114    4.5504    2.1761 N.pl3     1 <0>         0.0260
     26 O1          7.7111    4.3167    1.3892 O.2       1 <0>        -0.1581
     27 O2          7.0690    4.7886    3.3425 O.3       1 <0>        -0.1574
     28 Br1        -0.6857    8.0065    2.3500 Br        1 <0>        -0.0448
     29 H4         -5.3092    4.6180    2.5342 H         1 <0>         0.0718
     30 H5         -5.5321    6.0788    1.5419 H         1 <0>         0.0672
     31 H6         -5.4826    4.4765    0.7683 H         1 <0>         0.0726
     32 H7         -3.4921    7.1431    2.3247 H         1 <0>         0.1334
     33 H8         -3.5201    2.1767    1.1003 H         1 <0>         0.0786
     34 H9         -4.6231    3.1935    0.1423 H         1 <0>         0.0739
     35 H10        -3.1060    2.6031   -0.5775 H         1 <0>         0.0781
     36 H11        -2.1316    1.4405    0.0870 H         1 <0>         0.1473
     37 H12        -0.0150   -0.0343    0.1031 H         1 <0>         0.1326
     38 H13         2.0173    1.4894    0.7098 H         1 <0>         0.0755
     39 H14         1.5752    2.1245   -0.9108 H         1 <0>         0.0825
     40 H15         0.8007    6.5026    0.7187 H         1 <0>         0.3723
     41 H16         2.2727    5.0188    2.8741 H         1 <0>         0.1547
     42 H17         4.6121    5.0207    3.6426 H         1 <0>         0.1546
     43 H18         5.9102    4.0678   -0.3066 H         1 <0>         0.1553
     44 H19         3.5703    4.0576   -1.0733 H         1 <0>         0.1468
@<TRIPOS>BOND
     1    1    2 1
     2    1   29 1
     3    1   30 1
     4    1   31 1
     5    2    7 ar
     6    2    3 ar
     7    3    4 ar
     8    3   32 1
     9    4    5 ar
    10    4   28 1
    11    5   18 1
    12    5    6 ar
    13    6    7 ar
    14    6    9 1
    15    7    8 1
    16    8   33 1
    17    8   34 1
    18    8   35 1
    19    9   10 1
    20    9   14 1
    21    9   11 1
    22   11   12 2
    23   11   36 1
    24   12   13 1
    25   12   37 1
    26   13   14 1
    27   13   38 1
    28   13   39 1
    29   14   15 1
    30   14   16 1
    31   16   17 1
    32   16   18 1
    33   16   19 1
    34   18   40 1
    35   19   24 ar
    36   19   20 ar
    37   20   21 ar
    38   20   41 1
    39   21   22 ar
    40   21   42 1
    41   22   23 ar
    42   22   25 1
    43   23   24 ar
    44   23   43 1
    45   24   44 1
    46   25   26 2
    47   25   27 1
@<TRIPOS>MOLECULE
ZINC03667773
   55    59     0     0     0
SMALL
USER_CHARGES
3-cyclohexyl-5-[[1-[(3-fluorophenyl)methyl]indol-3-yl]methylene]-2-thioxo-imidazolidin-4-one
@<TRIPOS>ATOM
      1 C1          0.0709    1.4969   -1.1986 C.ar      1 <0>        -0.1303
      2 C2          1.1910    2.3086   -1.3072 C.ar      1 <0>        -0.0941
      3 C3          1.1051    3.6606   -1.0565 C.ar      1 <0>        -0.1197
      4 C4         -0.1138    4.2228   -0.6905 C.ar      1 <0>         0.0961
      5 C5         -1.2460    3.3999   -0.5812 C.ar      1 <0>        -0.0773
      6 C6         -1.1460    2.0358   -0.8426 C.ar      1 <0>        -0.0740
      7 C7         -2.3555    4.2876   -0.1845 C.2       1 <0>        -0.1822
      8 C8         -1.8285    5.5449   -0.0859 C.2       1 <0>         0.1011
      9 N1         -0.5046    5.5101   -0.3842 N.pl3     1 <0>        -0.4566
     10 C9          0.3837    6.6751   -0.3817 C.3       1 <0>         0.1435
     11 C10         0.4817    7.2351   -1.7773 C.ar      1 <0>        -0.0939
     12 C11         1.4665    6.7826   -2.6360 C.ar      1 <0>        -0.1076
     13 C12         1.5545    7.2919   -3.9180 C.ar      1 <0>        -0.0873
     14 C13         0.6646    8.2619   -4.3395 C.ar      1 <0>        -0.1411
     15 C14        -0.3185    8.7195   -3.4789 C.ar      1 <0>         0.1022
     16 C15        -0.4090    8.2047   -2.1965 C.ar      1 <0>        -0.1352
     17 F1         -1.1886    9.6679   -3.8896 F         1 <0>        -0.1344
     18 C16        -3.7456    3.8991    0.0553 C.2       1 <0>         0.0913
     19 C17        -4.5759    4.7306    0.7420 C.2       1 <0>        -0.0648
     20 C18        -5.9754    4.5747    0.9353 C.2       1 <0>         0.5509
     21 O1         -6.6674    3.6646    0.5152 O.2       1 <0>        -0.4619
     22 N2         -6.3918    5.6237    1.6709 N.am      1 <0>        -0.5252
     23 C19        -5.3477    6.4221    1.9490 C.2       1 <0>         0.5270
     24 S1         -5.4317    7.8677    2.8623 S.2       1 <0>        -0.5332
     25 N3         -4.2245    5.9133    1.4087 N.pl3     1 <0>        -0.6016
     26 C20        -7.7722    5.8581    2.1019 C.3       1 <0>         0.1512
     27 C21        -8.2628    7.1931    1.5381 C.3       1 <0>        -0.1467
     28 C22        -9.7045    7.4378    1.9881 C.3       1 <0>        -0.1105
     29 C23        -9.7619    7.4777    3.5165 C.3       1 <0>        -0.1227
     30 C24        -9.2712    6.1426    4.0803 C.3       1 <0>        -0.1104
     31 C25        -7.8296    5.8979    3.6303 C.3       1 <0>        -0.1467
     32 H1          0.1525    0.4387   -1.3984 H         1 <0>         0.1294
     33 H2          2.1393    1.8764   -1.5906 H         1 <0>         0.1307
     34 H3          1.9830    4.2834   -1.1442 H         1 <0>         0.1223
     35 H4         -2.0174    1.4028   -0.7631 H         1 <0>         0.1284
     36 H5         -2.3815    6.4315    0.1871 H         1 <0>         0.1691
     37 H6         -0.0170    7.4361    0.2879 H         1 <0>         0.1096
     38 H7          1.3745    6.3758   -0.0399 H         1 <0>         0.1090
     39 H8          2.1648    6.0277   -2.3061 H         1 <0>         0.1308
     40 H9          2.3216    6.9347   -4.5892 H         1 <0>         0.1387
     41 H10         0.7364    8.6629   -5.3397 H         1 <0>         0.1402
     42 H11        -1.1758    8.5607   -1.5244 H         1 <0>         0.1361
     43 H12        -4.1129    2.9524   -0.3127 H         1 <0>         0.1659
     44 H13        -3.3351    6.2959    1.4679 H         1 <0>         0.4409
     45 H14        -8.4089    5.0529    1.7353 H         1 <0>         0.1078
     46 H15        -7.6261    7.9983    1.9047 H         1 <0>         0.1073
     47 H16        -8.2220    7.1647    0.4492 H         1 <0>         0.0613
     48 H17       -10.3412    6.6326    1.6215 H         1 <0>         0.0612
     49 H18       -10.0540    8.3889    1.5865 H         1 <0>         0.0702
     50 H19       -10.7890    7.6520    3.8372 H         1 <0>         0.0644
     51 H20        -9.1252    8.2829    3.8831 H         1 <0>         0.0705
     52 H21        -9.9079    5.3375    3.7137 H         1 <0>         0.0611
     53 H22        -9.3121    6.1711    5.1692 H         1 <0>         0.0703
     54 H23        -7.4800    4.9468    4.0319 H         1 <0>         0.0616
     55 H24        -7.1929    6.7031    3.9969 H         1 <0>         0.1074
@<TRIPOS>BOND
     1    1    6 ar
     2    1    2 ar
     3    1   32 1
     4    2    3 ar
     5    2   33 1
     6    3    4 ar
     7    3   34 1
     8    4    9 1
     9    4    5 ar
    10    5    6 ar
    11    5    7 1
    12    6   35 1
    13    7    8 2
    14    7   18 1
    15    8    9 1
    16    8   36 1
    17    9   10 1
    18   10   11 1
    19   10   37 1
    20   10   38 1
    21   11   16 ar
    22   11   12 ar
    23   12   13 ar
    24   12   39 1
    25   13   14 ar
    26   13   40 1
    27   14   15 ar
    28   14   41 1
    29   15   16 ar
    30   15   17 1
    31   16   42 1
    32   18   19 2
    33   18   43 1
    34   19   25 1
    35   19   20 1
    36   20   21 2
    37   20   22 am
    38   22   23 1
    39   22   26 1
    40   23   24 2
    41   23   25 1
    42   25   44 1
    43   26   31 1
    44   26   27 1
    45   26   45 1
    46   27   28 1
    47   27   46 1
    48   27   47 1
    49   28   29 1
    50   28   48 1
    51   28   49 1
    52   29   30 1
    53   29   50 1
    54   29   51 1
    55   30   31 1
    56   30   52 1
    57   30   53 1
    58   31   54 1
    59   31   55 1
@<TRIPOS>MOLECULE
ZINC20526317
   35    36     0     0     0
SMALL
USER_CHARGES
2,6-dibromo-4-methyl-N-[(1S)-1-(2-nitrophenyl)ethyl]aniline
@<TRIPOS>ATOM
      1 C1          7.5756    6.2219    2.9086 C.3       1 <0>        -0.1176
      2 C2          6.5032    5.3894    2.2545 C.ar      1 <0>        -0.0802
      3 C3          5.5292    4.7867    3.0293 C.ar      1 <0>        -0.0706
      4 C4          4.5442    4.0226    2.4329 C.ar      1 <0>        -0.0974
      5 C5          4.5333    3.8603    1.0529 C.ar      1 <0>         0.2285
      6 C6          5.5167    4.4630    0.2781 C.ar      1 <0>        -0.0964
      7 C7          6.4952    5.2304    0.8809 C.ar      1 <0>        -0.0722
      8 Br1         5.5118    4.2394   -1.5997 Br        1 <0>        -0.0310
      9 N1          3.5389    3.0877    0.4463 N.pl3     1 <0>        -0.7927
     10 C8          2.2864    3.8452    0.3216 C.3       1 <0>         0.1778
     11 H1          2.1727    4.4551    1.2300 H         1 <0>         0.1148
     12 C9          2.3463    4.7279   -0.9266 C.3       1 <0>        -0.1549
     13 C10         1.1293    2.8869    0.2042 C.ar      1 <0>        -0.0075
     14 C11         1.3515    1.5795   -0.1869 C.ar      1 <0>        -0.1170
     15 C12         0.2902    0.7006   -0.2946 C.ar      1 <0>        -0.0587
     16 C13        -0.9941    1.1302   -0.0164 C.ar      1 <0>        -0.1233
     17 C14        -1.2155    2.4356    0.3802 C.ar      1 <0>        -0.0500
     18 C15        -0.1539    3.3148    0.4879 C.ar      1 <0>        -0.0428
     19 N2         -0.3916    4.7142    0.9076 N.pl3     1 <0>         0.0302
     20 O1         -1.5224    5.0913    1.1576 O.2       1 <0>        -0.1640
     21 O2          0.5437    5.4886    1.0029 O.3       1 <0>        -0.1529
     22 Br2         3.2125    3.1994    3.4934 Br        1 <0>        -0.0344
     23 H2          7.4187    6.2323    3.9973 H         1 <0>         0.0715
     24 H3          7.5285    7.2505    2.5215 H         1 <0>         0.0770
     25 H4          8.5624    5.7906    2.6844 H         1 <0>         0.0759
     26 H5          5.5385    4.9131    4.1018 H         1 <0>         0.1389
     27 H6          7.2575    5.7026    0.2788 H         1 <0>         0.1389
     28 H7          3.5937    2.0515    0.0812 H         1 <0>         0.4299
     29 H8          1.4084    5.2951   -1.0199 H         1 <0>         0.0596
     30 H9          2.4827    4.0958   -1.8165 H         1 <0>         0.0597
     31 H10         3.1909    5.4274   -0.8408 H         1 <0>         0.0711
     32 H11         2.3542    1.2451   -0.4086 H         1 <0>         0.1435
     33 H12         0.4637   -0.3206   -0.6004 H         1 <0>         0.1443
     34 H13        -1.8239    0.4446   -0.1048 H         1 <0>         0.1479
     35 H14        -2.2181    2.7699    0.6022 H         1 <0>         0.1543
@<TRIPOS>BOND
     1    1    2 1
     2    1   23 1
     3    1   24 1
     4    1   25 1
     5    2    7 ar
     6    2    3 ar
     7    3    4 ar
     8    3   26 1
     9    4    5 ar
    10    4   22 1
    11    5    6 ar
    12    5    9 1
    13    6    7 ar
    14    6    8 1
    15    7   27 1
    16    9   10 1
    17    9   28 1
    18   10   11 1
    19   10   12 1
    20   10   13 1
    21   12   29 1
    22   12   30 1
    23   12   31 1
    24   13   18 ar
    25   13   14 ar
    26   14   15 ar
    27   14   32 1
    28   15   16 ar
    29   15   33 1
    30   16   17 ar
    31   16   34 1
    32   17   18 ar
    33   17   35 1
    34   18   19 1
    35   19   20 2
    36   19   21 1
@<TRIPOS>MOLECULE
ZINC33290067
   42    44     0     0     0
SMALL
USER_CHARGES
N-(2-chloro-4-methyl-phenyl)-5-(4,5-dimethylthiazol-2-yl)-2-methyl-thiophene-3-sulfonamide
@<TRIPOS>ATOM
      1 C1         -5.6873   -1.3882   -2.1099 C.3       1 <0>        -0.1168
      2 C2         -4.4286   -0.5863   -1.9013 C.ar      1 <0>        -0.0915
      3 C3         -4.0703   -0.1835   -0.6278 C.ar      1 <0>        -0.0738
      4 C4         -2.9179    0.5524   -0.4327 C.ar      1 <0>        -0.1612
      5 C5         -2.1178    0.8878   -1.5172 C.ar      1 <0>         0.1821
      6 C6         -2.4830    0.4861   -2.7967 C.ar      1 <0>        -0.0561
      7 C7         -3.6348   -0.2545   -2.9838 C.ar      1 <0>        -0.0810
      8 Cl1        -1.4908    0.9090   -4.1569 Cl        1 <0>        -0.0582
      9 N1         -0.9511    1.6322   -1.3231 N.pl3     1 <0>        -1.0650
     10 S1         -0.0775    1.4537    0.0723 S.o2      1 <0>         2.7049
     11 O1          0.0405    0.0564    0.3017 O.2       1 <0>        -0.9335
     12 O2          1.0544    2.3047   -0.0455 O.2       1 <0>        -0.9383
     13 C8         -1.0578    2.0988    1.3867 C.2       1 <0>        -0.7252
     14 C9         -1.4904    1.2761    2.4015 C.2       1 <0>        -0.0367
     15 C10        -2.2473    1.8167    3.4104 C.2       1 <0>        -0.1010
     16 S2         -2.3626    3.5260    2.9074 S.3       1 <0>         0.1604
     17 C11        -1.4005    3.4133    1.4078 C.2       1 <0>        -0.0077
     18 C12        -1.0574    4.4976    0.4190 C.3       1 <0>        -0.1188
     19 C13        -2.8199    1.1581    4.5950 C.2       1 <0>         0.1763
     20 N2         -2.7430   -0.1128    4.9726 N.2       1 <0>        -0.4751
     21 C14        -3.3200   -0.5304    6.0757 C.2       1 <0>         0.0518
     22 C15        -4.0195    0.3424    6.8471 C.2       1 <0>        -0.1583
     23 S3         -3.8134    1.8516    5.9100 S.3       1 <0>         0.0210
     24 C16        -4.7633    0.1044    8.1359 C.3       1 <0>        -0.0685
     25 C17        -3.2112   -1.9773    6.4828 C.3       1 <0>        -0.0856
     26 H1         -6.1819   -1.5528   -1.1413 H         1 <0>         0.0696
     27 H2         -5.4332   -2.3585   -2.5615 H         1 <0>         0.0748
     28 H3         -6.3655   -0.8386   -2.7792 H         1 <0>         0.0739
     29 H4         -4.6927   -0.4444    0.2154 H         1 <0>         0.1348
     30 H5         -2.6395    0.8670    0.5622 H         1 <0>         0.1372
     31 H6         -3.9177   -0.5704   -3.9771 H         1 <0>         0.1402
     32 H7         -0.6131    2.3367   -2.0973 H         1 <0>         0.4559
     33 H8         -1.2357    0.2265    2.4061 H         1 <0>         0.1650
     34 H9         -1.5011    5.4485    0.7490 H         1 <0>         0.0986
     35 H10        -1.4563    4.2308   -0.5708 H         1 <0>         0.1010
     36 H11         0.0356    4.6049    0.3571 H         1 <0>         0.1183
     37 H12        -5.2134    1.0476    8.4790 H         1 <0>         0.0778
     38 H13        -4.0642   -0.2673    8.8995 H         1 <0>         0.0887
     39 H14        -5.5552   -0.6408    7.9700 H         1 <0>         0.0887
     40 H15        -3.7545   -2.1346    7.4263 H         1 <0>         0.0768
     41 H16        -2.1522   -2.2406    6.6212 H         1 <0>         0.0772
     42 H17        -3.6476   -2.6128    5.6981 H         1 <0>         0.0772
@<TRIPOS>BOND
     1    1    2 1
     2    1   26 1
     3    1   27 1
     4    1   28 1
     5    2    7 ar
     6    2    3 ar
     7    3    4 ar
     8    3   29 1
     9    4    5 ar
    10    4   30 1
    11    5    6 ar
    12    5    9 1
    13    6    7 ar
    14    6    8 1
    15    7   31 1
    16    9   10 1
    17    9   32 1
    18   10   11 2
    19   10   12 2
    20   10   13 1
    21   13   17 2
    22   13   14 1
    23   14   15 2
    24   14   33 1
    25   15   16 1
    26   15   19 1
    27   16   17 1
    28   17   18 1
    29   18   34 1
    30   18   35 1
    31   18   36 1
    32   19   23 1
    33   19   20 2
    34   20   21 1
    35   21   22 2
    36   21   25 1
    37   22   23 1
    38   22   24 1
    39   24   37 1
    40   24   38 1
    41   24   39 1
    42   25   40 1
    43   25   41 1
    44   25   42 1
@<TRIPOS>MOLECULE
ZINC39524671
   54    57     0     0     0
SMALL
USER_CHARGES

@<TRIPOS>ATOM
      1 C1          2.7937    3.5393   -0.3351 C.ar      1 <0>        -0.0614
      2 C2          4.1093    3.1545   -0.5143 C.ar      1 <0>        -0.1392
      3 C3          4.4575    1.8198   -0.4241 C.ar      1 <0>        -0.0256
      4 C4          3.4901    0.8698   -0.1543 C.ar      1 <0>        -0.6635
      5 C5          2.1747    1.2547    0.0258 C.ar      1 <0>        -0.0166
      6 C6          1.8263    2.5893   -0.0658 C.ar      1 <0>        -0.1397
      7 S1          3.9337   -0.8316   -0.0405 S.o2      1 <0>         2.5042
      8 O1          2.7175   -1.5378   -0.2440 O.2       1 <0>        -0.9010
      9 O2          5.0199   -0.9843   -0.9439 O.2       1 <0>        -0.9233
     10 C7          4.5055   -1.0511    1.6669 C.3       1 <0>        -0.4338
     11 H1          4.5575   -0.0804    2.1601 H         1 <0>         0.1247
     12 C8          5.8939   -1.6949    1.6609 C.3       1 <0>        -0.0984
     13 C9          6.3636   -1.8962    3.1043 C.3       1 <0>        -0.1202
     14 C10         5.3434   -2.7620    3.8486 C.3       1 <0>        -0.1115
     15 C11         3.9706   -2.0878    3.7912 C.3       1 <0>         0.0984
     16 N1          3.5660   -1.9175    2.3900 N.3       1 <0>        -0.3097
     17 Cl1         1.9694   -1.3146    2.2824 Cl        1 <0>        -0.0555
     18 C12         2.9444   -2.9610    4.5163 C.3       1 <0>        -0.1113
     19 C13         3.3683   -3.1404    5.9755 C.3       1 <0>        -0.1179
     20 C14         3.4449   -1.7722    6.6560 C.3       1 <0>        -0.1120
     21 C15         4.4701   -0.8983    5.9307 C.3       1 <0>        -0.0393
     22 H2          5.4482   -1.3779    5.9690 H         1 <0>         0.0934
     23 C16         4.0466   -0.7194    4.4714 C.3       1 <0>        -0.1417
     24 C17         4.5449    0.4494    6.6008 C.ar      1 <0>        -0.1018
     25 C18         3.4184    1.2454    6.6808 C.ar      1 <0>        -0.1007
     26 C19         3.4865    2.4820    7.2949 C.ar      1 <0>        -0.1256
     27 C20         4.6816    2.9254    7.8311 C.ar      1 <0>        -0.1067
     28 C21         5.8105    2.1333    7.7542 C.ar      1 <0>        -0.1430
     29 C22         5.7435    0.8895    7.1429 C.ar      1 <0>         0.1067
     30 O3          6.8515    0.1059    7.0709 O.3       1 <0>        -0.4939
     31 H3          2.5224    4.5826   -0.4011 H         1 <0>         0.1329
     32 H4          4.8650    3.8967   -0.7250 H         1 <0>         0.1351
     33 H5          5.4852    1.5191   -0.5648 H         1 <0>         0.1403
     34 H6          1.4189    0.5125    0.2362 H         1 <0>         0.1405
     35 H7          0.7985    2.8899    0.0745 H         1 <0>         0.1340
     36 H8          5.8454   -2.6597    1.1560 H         1 <0>         0.0921
     37 H9          6.5945   -1.0443    1.1375 H         1 <0>         0.0984
     38 H10         7.3335   -2.3937    3.1057 H         1 <0>         0.0838
     39 H11         6.4490   -0.9282    3.5980 H         1 <0>         0.0689
     40 H12         5.2867   -3.7434    3.3778 H         1 <0>         0.0832
     41 H13         5.6507   -2.8738    4.8884 H         1 <0>         0.0914
     42 H14         1.9668   -2.4804    4.4783 H         1 <0>         0.0754
     43 H15         2.8893   -3.9357    4.0315 H         1 <0>         0.0806
     44 H16         2.6377   -3.7628    6.4922 H         1 <0>         0.0720
     45 H17         4.3462   -3.6204    6.0134 H         1 <0>         0.0700
     46 H18         2.4669   -1.2924    6.6182 H         1 <0>         0.0642
     47 H19         3.7470   -1.8999    7.6955 H         1 <0>         0.0679
     48 H20         4.7770   -0.0968    3.9548 H         1 <0>         0.0709
     49 H21         3.0685   -0.2398    4.4331 H         1 <0>         0.0741
     50 H22         2.4839    0.9013    6.2628 H         1 <0>         0.1235
     51 H23         2.6050    3.1030    7.3558 H         1 <0>         0.1244
     52 H24         4.7323    3.8921    8.3101 H         1 <0>         0.1264
     53 H25         6.7436    2.4801    8.1731 H         1 <0>         0.1284
     54 H26         7.3850    0.2510    6.2776 H         1 <0>         0.3873
@<TRIPOS>BOND
     1    1    6 ar
     2    1    2 ar
     3    1   31 1
     4    2    3 ar
     5    2   32 1
     6    3    4 ar
     7    3   33 1
     8    4    5 ar
     9    4    7 1
    10    5    6 ar
    11    5   34 1
    12    6   35 1
    13    7    8 2
    14    7    9 2
    15    7   10 1
    16   10   11 1
    17   10   16 1
    18   10   12 1
    19   12   13 1
    20   12   36 1
    21   12   37 1
    22   13   14 1
    23   13   38 1
    24   13   39 1
    25   14   15 1
    26   14   40 1
    27   14   41 1
    28   15   23 1
    29   15   16 1
    30   15   18 1
    31   16   17 1
    32   18   19 1
    33   18   42 1
    34   18   43 1
    35   19   20 1
    36   19   44 1
    37   19   45 1
    38   20   21 1
    39   20   46 1
    40   20   47 1
    41   21   22 1
    42   21   23 1
    43   21   24 1
    44   23   48 1
    45   23   49 1
    46   24   29 ar
    47   24   25 ar
    48   25   26 ar
    49   25   50 1
    50   26   27 ar
    51   26   51 1
    52   27   28 ar
    53   27   52 1
    54   28   29 ar
    55   28   53 1
    56   29   30 1
    57   30   54 1
@<TRIPOS>MOLECULE
ZINC05702072
   55    60     0     0     0
SMALL
USER_CHARGES
N-(1-adamantylmethyl)-2-(dioxoBLAHyl)-acetamide
@<TRIPOS>ATOM
      1 C1          3.5705   -2.0852   -0.0414 C.ar      1 <0>        -0.0858
      2 C2          3.6333   -0.7225   -0.0350 C.ar      1 <0>        -0.1152
      3 C3          2.4350    0.0109   -0.0203 C.ar      1 <0>        -0.0253
      4 C4          2.3924    1.4150   -0.0122 C.ar      1 <0>        -0.0488
      5 C5          1.1886    2.0558    0.0018 C.ar      1 <0>        -0.1366
      6 C6         -0.0162    1.3414    0.0094 C.ar      1 <0>         0.0485
      7 C7          0.0021   -0.0041    0.0020 C.ar      1 <0>        -0.6408
      8 C8          1.2164   -0.6992   -0.0130 C.ar      1 <0>        -0.0756
      9 C9          1.1508   -2.0912   -0.0195 C.ar      1 <0>         0.1449
     10 C10         2.3650   -2.7754   -0.0336 C.ar      1 <0>        -0.1117
     11 N1         -0.1442   -2.6351   -0.0106 N.pl3     1 <0>        -0.9030
     12 S1         -1.1831   -1.3189    0.0059 S.o2      1 <0>         2.6701
     13 O1         -1.8437   -1.3036    1.2640 O.2       1 <0>        -0.9349
     14 O2         -1.8666   -1.2904   -1.2395 O.2       1 <0>        -0.9216
     15 C11        -0.5102   -4.0536   -0.0152 C.3       1 <0>         0.1260
     16 C12        -0.5290   -4.5630   -1.4334 C.2       1 <0>         0.4831
     17 O3         -0.2628   -3.8147   -2.3500 O.2       1 <0>        -0.5071
     18 N2         -0.8415   -5.8500   -1.6831 N.am      1 <0>        -0.7265
     19 C13        -0.8597   -6.3451   -3.0618 C.3       1 <0>         0.1297
     20 C14        -1.2420   -7.8266   -3.0667 C.3       1 <0>        -0.0651
     21 C15        -0.2176   -8.6202   -2.2532 C.3       1 <0>        -0.1013
     22 C16        -0.5998  -10.1017   -2.2581 C.3       1 <0>        -0.0861
     23 C17        -0.6189  -10.6188   -3.6979 C.3       1 <0>        -0.1092
     24 C18        -1.6432   -9.8252   -4.5113 C.3       1 <0>        -0.0849
     25 C19        -1.2610   -8.3437   -4.5065 C.3       1 <0>        -0.1002
     26 C20        -3.0308   -9.9959   -3.8898 C.3       1 <0>        -0.1095
     27 C21        -3.0118   -9.4788   -2.4499 C.3       1 <0>        -0.0863
     28 C22        -1.9874  -10.2724   -1.6365 C.3       1 <0>        -0.1090
     29 C23        -2.6296   -7.9973   -2.4451 C.3       1 <0>        -0.1030
     30 H1          4.4921   -2.6482   -0.0521 H         1 <0>         0.1337
     31 H2          4.5873   -0.2163   -0.0414 H         1 <0>         0.1390
     32 H3          3.3097    1.9851   -0.0174 H         1 <0>         0.1428
     33 H4          1.1637    3.1355    0.0077 H         1 <0>         0.1414
     34 H5         -0.9582    1.8696    0.0168 H         1 <0>         0.1409
     35 H6          2.3687   -3.8554   -0.0386 H         1 <0>         0.1307
     36 H7          0.2195   -4.6191    0.5643 H         1 <0>         0.1230
     37 H8         -1.4988   -4.1753    0.4276 H         1 <0>         0.1218
     38 H9         -1.0544   -6.4484   -0.9500 H         1 <0>         0.4007
     39 H10        -1.5895   -5.7797   -3.6413 H         1 <0>         0.0709
     40 H11         0.1288   -6.2235   -3.5046 H         1 <0>         0.0700
     41 H12         0.7709   -8.4986   -2.6960 H         1 <0>         0.0650
     42 H13        -0.2041   -8.2519   -1.2274 H         1 <0>         0.0606
     43 H14         0.1299  -10.6671   -1.6785 H         1 <0>         0.0703
     44 H15        -0.8912  -11.6742   -3.7013 H         1 <0>         0.0624
     45 H16         0.3697  -10.4972   -4.1407 H         1 <0>         0.0619
     46 H17        -1.6568  -10.1935   -5.5371 H         1 <0>         0.0716
     47 H18        -1.9908   -7.7783   -5.0860 H         1 <0>         0.0663
     48 H19        -0.2724   -8.2221   -4.9493 H         1 <0>         0.0658
     49 H20        -3.7606   -9.4304   -4.4693 H         1 <0>         0.0623
     50 H21        -3.3031  -11.0513   -3.8932 H         1 <0>         0.0624
     51 H22        -4.0003   -9.6004   -2.0071 H         1 <0>         0.0708
     52 H23        -2.2598  -11.3279   -1.6399 H         1 <0>         0.0625
     53 H24        -1.9739   -9.9040   -0.6107 H         1 <0>         0.0612
     54 H25        -2.6160   -7.6289   -1.4193 H         1 <0>         0.0609
     55 H26        -3.3593   -7.4319   -3.0246 H         1 <0>         0.0661
@<TRIPOS>BOND
     1    1   10 ar
     2    1    2 ar
     3    1   30 1
     4    2    3 ar
     5    2   31 1
     6    3    8 ar
     7    3    4 ar
     8    4    5 ar
     9    4   32 1
    10    5    6 ar
    11    5   33 1
    12    6    7 ar
    13    6   34 1
    14    7   12 1
    15    7    8 ar
    16    8    9 ar
    17    9   10 ar
    18    9   11 1
    19   10   35 1
    20   11   12 1
    21   11   15 1
    22   12   13 2
    23   12   14 2
    24   15   16 1
    25   15   36 1
    26   15   37 1
    27   16   17 2
    28   16   18 am
    29   18   19 1
    30   18   38 1
    31   19   20 1
    32   19   39 1
    33   19   40 1
    34   20   25 1
    35   20   29 1
    36   20   21 1
    37   21   22 1
    38   21   41 1
    39   21   42 1
    40   22   28 1
    41   22   23 1
    42   22   43 1
    43   23   24 1
    44   23   44 1
    45   23   45 1
    46   24   25 1
    47   24   26 1
    48   24   46 1
    49   25   47 1
    50   25   48 1
    51   26   27 1
    52   26   49 1
    53   26   50 1
    54   27   28 1
    55   27   29 1
    56   27   51 1
    57   28   52 1
    58   28   53 1
    59   29   54 1
    60   29   55 1
@<TRIPOS>MOLECULE
ZINC12884760
   59    64     0     0     0
SMALL
USER_CHARGES
(4-ethylphenyl)-dimethoxy-BLAHone
@<TRIPOS>ATOM
      1 C1          3.1842    6.1317    5.6242 C.3       1 <0>        -0.1468
      2 C2          3.4853    4.6587    5.3408 C.3       1 <0>        -0.0858
      3 C3          3.0047    4.3050    3.9569 C.ar      1 <0>        -0.0802
      4 C4          3.8517    4.4472    2.8737 C.ar      1 <0>        -0.1173
      5 C5          3.4109    4.1228    1.6044 C.ar      1 <0>        -0.1103
      6 C6          2.1234    3.6552    1.4183 C.ar      1 <0>        -0.0792
      7 C7          1.2749    3.5175    2.5009 C.ar      1 <0>        -0.0959
      8 C8          1.7171    3.8378    3.7708 C.ar      1 <0>        -0.1138
      9 C9          1.6428    3.3015    0.0345 C.3       1 <0>         0.0086
     10 H1          2.4463    3.4737   -0.6817 H         1 <0>         0.1013
     11 C10         0.4420    4.1881   -0.3255 C.3       1 <0>         0.1431
     12 N1         -0.7463    3.6163    0.3160 N.am      1 <0>        -0.6073
     13 C11        -1.2357    2.2534    0.0037 C.3       1 <0>         0.2393
     14 H2         -1.7179    2.2338   -0.9737 H         1 <0>         0.1220
     15 C12        -2.1999    1.9166    1.0893 C.ar      1 <0>        -0.1067
     16 C13        -2.8607    0.7532    1.4088 C.ar      1 <0>        -0.0589
     17 C14        -3.7429    0.7958    2.4857 C.ar      1 <0>        -0.1710
     18 C15        -3.9546    1.9527    3.2111 C.ar      1 <0>         0.1100
     19 C16        -3.2863    3.1425    2.9054 C.ar      1 <0>         0.1515
     20 C17        -2.3920    3.1044    1.8276 C.ar      1 <0>        -0.1422
     21 C18        -1.5342    4.1457    1.2613 C.2       1 <0>         0.5735
     22 O1         -1.5360    5.3141    1.5978 O.2       1 <0>        -0.4963
     23 O2         -3.4933    4.2787    3.6187 O.3       1 <0>        -0.3107
     24 C19        -4.5338    5.1478    3.1668 C.3       1 <0>         0.0424
     25 O3         -4.8347    1.9339    4.2477 O.3       1 <0>        -0.3029
     26 C20        -5.4916    0.6941    4.5187 C.3       1 <0>         0.0214
     27 C21        -0.0165    1.3644    0.0095 C.2       1 <0>         0.0615
     28 C22         1.2466    1.8478    0.0001 C.2       1 <0>        -0.1321
     29 C23         2.1308    0.6963   -0.0316 C.ar      1 <0>        -0.0963
     30 C24         3.5237    0.5772   -0.0608 C.ar      1 <0>        -0.0602
     31 C25         4.0360   -0.6964   -0.0899 C.ar      1 <0>        -0.1489
     32 C26         3.2223   -1.8176   -0.0883 C.ar      1 <0>        -0.0954
     33 C27         1.8414   -1.7277   -0.0581 C.ar      1 <0>        -0.1324
     34 C28         1.2927   -0.4471   -0.0299 C.ar      1 <0>         0.1057
     35 N2          0.0021   -0.0041    0.0020 N.pl3     1 <0>        -0.5763
     36 H3         -0.7833   -0.5731    0.0171 H         1 <0>         0.4143
     37 H4          3.6967    6.7549    4.8913 H         1 <0>         0.0555
     38 H5          2.1096    6.3022    5.5581 H         1 <0>         0.0562
     39 H6          3.5318    6.3876    6.6251 H         1 <0>         0.0576
     40 H7          2.9729    4.0355    6.0737 H         1 <0>         0.0697
     41 H8          4.5599    4.4882    5.4068 H         1 <0>         0.0708
     42 H9          4.8577    4.8122    3.0192 H         1 <0>         0.1204
     43 H10         4.0725    4.2343    0.7581 H         1 <0>         0.1214
     44 H11         0.2676    3.1564    2.3549 H         1 <0>         0.1129
     45 H12         1.0555    3.7264    4.6171 H         1 <0>         0.1163
     46 H13         0.6080    5.2010    0.0413 H         1 <0>         0.1040
     47 H14         0.3067    4.2049   -1.4069 H         1 <0>         0.0876
     48 H15        -2.7016   -0.1560    0.8479 H         1 <0>         0.1387
     49 H16        -4.2769   -0.1014    2.7620 H         1 <0>         0.1434
     50 H17        -5.4845    4.6150    3.1822 H         1 <0>         0.0478
     51 H18        -4.5930    6.0157    3.8235 H         1 <0>         0.0996
     52 H19        -4.3174    5.4756    2.1500 H         1 <0>         0.0504
     53 H20        -6.0636    0.3870    3.6431 H         1 <0>         0.0589
     54 H21        -4.7478   -0.0677    4.7522 H         1 <0>         0.0593
     55 H22        -6.1643    0.8172    5.3674 H         1 <0>         0.1062
     56 H23         4.1659    1.4456   -0.0605 H         1 <0>         0.1283
     57 H24         5.1076   -0.8283   -0.1144 H         1 <0>         0.1185
     58 H25         3.6810   -2.7950   -0.1118 H         1 <0>         0.1215
     59 H26         1.2179   -2.6096   -0.0560 H         1 <0>         0.1277
@<TRIPOS>BOND
     1    1    2 1
     2    1   37 1
     3    1   38 1
     4    1   39 1
     5    2    3 1
     6    2   40 1
     7    2   41 1
     8    3    8 ar
     9    3    4 ar
    10    4    5 ar
    11    4   42 1
    12    5    6 ar
    13    5   43 1
    14    6    7 ar
    15    6    9 1
    16    7    8 ar
    17    7   44 1
    18    8   45 1
    19    9   10 1
    20    9   28 1
    21    9   11 1
    22   11   12 1
    23   11   46 1
    24   11   47 1
    25   12   21 am
    26   12   13 1
    27   13   14 1
    28   13   15 1
    29   13   27 1
    30   15   20 ar
    31   15   16 ar
    32   16   17 ar
    33   16   48 1
    34   17   18 ar
    35   17   49 1
    36   18   19 ar
    37   18   25 1
    38   19   20 ar
    39   19   23 1
    40   20   21 1
    41   21   22 2
    42   23   24 1
    43   24   50 1
    44   24   51 1
    45   24   52 1
    46   25   26 1
    47   26   53 1
    48   26   54 1
    49   26   55 1
    50   27   35 1
    51   27   28 2
    52   28   29 1
    53   29   34 ar
    54   29   30 ar
    55   30   31 ar
    56   30   56 1
    57   31   32 ar
    58   31   57 1
    59   32   33 ar
    60   32   58 1
    61   33   34 ar
    62   33   59 1
    63   34   35 1
    64   35   36 1
@<TRIPOS>MOLECULE
ZINC08919825
   56    59     0     0     0
SMALL
USER_CHARGES
(2R)-N-(2,4-dimethylphenyl)-2-[5-(2,4-dimethylphenyl)-4-oxo-thieno[2,3-d]pyrimidin-3-yl]propanamide
@<TRIPOS>ATOM
      1 C1         -7.2565   -4.8169    6.0578 C.3       1 <0>        -0.1176
      2 C2         -6.4164   -5.0818    4.8350 C.ar      1 <0>        -0.0763
      3 C3         -5.1274   -5.5644    4.9758 C.ar      1 <0>        -0.1289
      4 C4         -4.3536   -5.8088    3.8600 C.ar      1 <0>        -0.0942
      5 C5         -4.8730   -5.5684    2.5884 C.ar      1 <0>        -0.0436
      6 C6         -6.1704   -5.0767    2.4530 C.ar      1 <0>        -0.0345
      7 C7         -6.9369   -4.8410    3.5763 C.ar      1 <0>        -0.1223
      8 C8         -6.7367   -4.8080    1.0825 C.3       1 <0>        -0.1154
      9 C9         -4.0467   -5.8289    1.3857 C.2       1 <0>        -0.0100
     10 C10        -3.6574   -7.0891    1.0754 C.2       1 <0>        -0.1825
     11 S1         -2.7111   -6.8723   -0.4195 S.3       1 <0>         0.1526
     12 C11        -2.8586   -5.1126   -0.5914 C.2       1 <0>         0.1083
     13 C12        -3.6380   -4.7341    0.5139 C.2       1 <0>        -0.2400
     14 C13        -3.9173   -3.3346    0.6254 C.2       1 <0>         0.5555
     15 O1         -4.5858   -2.9089    1.5516 O.2       1 <0>        -0.5055
     16 N1         -3.4301   -2.4958   -0.3076 N.am      1 <0>        -0.5168
     17 C14        -2.6877   -2.9529   -1.3484 C.2       1 <0>         0.4105
     18 N2         -2.4118   -4.2233   -1.4744 N.2       1 <0>        -0.4904
     19 C15        -3.7115   -1.0620   -0.2014 C.3       1 <0>         0.0951
     20 H1         -4.3125   -0.9084    0.7070 H         1 <0>         0.1503
     21 C16        -4.4692   -0.5974   -1.4468 C.3       1 <0>        -0.1632
     22 C17        -2.4147   -0.3025   -0.0899 C.2       1 <0>         0.5073
     23 O2         -1.3593   -0.9000   -0.0983 O.2       1 <0>        -0.5079
     24 N3         -2.4278    1.0408    0.0192 N.am      1 <0>        -0.6693
     25 C18        -1.2249    1.7555    0.0063 C.ar      1 <0>         0.1414
     26 C19        -0.1025    1.2178   -0.6103 C.ar      1 <0>        -0.1229
     27 C20         1.0816    1.9281   -0.6262 C.ar      1 <0>        -0.1051
     28 C21         1.1519    3.1716   -0.0249 C.ar      1 <0>        -0.0970
     29 C22         0.0377    3.7076    0.5939 C.ar      1 <0>        -0.1005
     30 C23        -1.1497    3.0021    0.6133 C.ar      1 <0>        -0.1098
     31 C24        -2.3637    3.5870    1.2880 C.3       1 <0>        -0.1179
     32 C25         2.4456    3.9443   -0.0446 C.3       1 <0>        -0.1167
     33 H2         -6.6789   -5.0653    6.9604 H         1 <0>         0.0651
     34 H3         -8.1639   -5.4376    6.0208 H         1 <0>         0.0697
     35 H4         -7.5399   -3.7544    6.0848 H         1 <0>         0.0693
     36 H5         -4.7263   -5.7505    5.9612 H         1 <0>         0.1216
     37 H6         -3.3477   -6.1858    3.9711 H         1 <0>         0.1204
     38 H7         -7.9435   -4.4636    3.4725 H         1 <0>         0.1202
     39 H8         -7.7641   -4.4270    1.1786 H         1 <0>         0.0626
     40 H9         -6.7445   -5.7409    0.4997 H         1 <0>         0.0641
     41 H10        -6.1148   -4.0600    0.5690 H         1 <0>         0.0691
     42 H11        -3.8693   -8.0052    1.6066 H         1 <0>         0.1986
     43 H12        -2.3155   -2.2536   -2.0825 H         1 <0>         0.2088
     44 H13        -4.6805    0.4792   -1.3671 H         1 <0>         0.0905
     45 H14        -5.4158   -1.1518   -1.5282 H         1 <0>         0.0852
     46 H15        -3.8560   -0.7855   -2.3405 H         1 <0>         0.0755
     47 H16        -3.3841    1.5753    0.1184 H         1 <0>         0.4364
     48 H17        -0.1569    0.2471   -1.0806 H         1 <0>         0.1432
     49 H18         1.9536    1.5124   -1.1090 H         1 <0>         0.1251
     50 H19         0.0957    4.6790    1.0623 H         1 <0>         0.1260
     51 H20        -2.1112    4.5721    1.7074 H         1 <0>         0.0729
     52 H21        -2.6920    2.9174    2.0966 H         1 <0>         0.0695
     53 H22        -3.1740    3.6984    0.5524 H         1 <0>         0.0683
     54 H23         2.3086    4.9021    0.4787 H         1 <0>         0.0651
     55 H24         2.7430    4.1349   -1.0863 H         1 <0>         0.0702
     56 H25         3.2294    3.3599    0.4595 H         1 <0>         0.0698
@<TRIPOS>BOND
     1    1    2 1
     2    1   33 1
     3    1   34 1
     4    1   35 1
     5    2    7 ar
     6    2    3 ar
     7    3    4 ar
     8    3   36 1
     9    4    5 ar
    10    4   37 1
    11    5    6 ar
    12    5    9 1
    13    6    7 ar
    14    6    8 1
    15    7   38 1
    16    8   39 1
    17    8   40 1
    18    8   41 1
    19    9   13 1
    20    9   10 2
    21   10   11 1
    22   10   42 1
    23   11   12 1
    24   12   18 1
    25   12   13 2
    26   13   14 1
    27   14   15 2
    28   14   16 am
    29   16   17 1
    30   16   19 1
    31   17   18 2
    32   17   43 1
    33   19   20 1
    34   19   21 1
    35   19   22 1
    36   21   44 1
    37   21   45 1
    38   21   46 1
    39   22   23 2
    40   22   24 am
    41   24   25 1
    42   24   47 1
    43   25   30 ar
    44   25   26 ar
    45   26   27 ar
    46   26   48 1
    47   27   28 ar
    48   27   49 1
    49   28   29 ar
    50   28   32 1
    51   29   30 ar
    52   29   50 1
    53   30   31 1
    54   31   51 1
    55   31   52 1
    56   31   53 1
    57   32   54 1
    58   32   55 1
    59   32   56 1
@<TRIPOS>MOLECULE
ZINC02416031
   51    56     0     0     0
SMALL
USER_CHARGES

@<TRIPOS>ATOM
      1 C1         -0.0184    1.5028    0.0103 C.3       1 <0>        -0.1107
      2 C2          0.0021   -0.0041    0.0020 C.ar      1 <0>        -0.1206
      3 C3          0.0057   -0.6870   -1.2017 C.ar      1 <0>        -0.0750
      4 C4          0.0226   -2.0694   -1.2249 C.ar      1 <0>        -0.1466
      5 C5          0.0372   -2.7783   -0.0366 C.ar      1 <0>         0.1381
      6 C6          0.0358   -2.0867    1.1816 C.ar      1 <0>        -0.1110
      7 C7          0.0229   -0.6989    1.1964 C.ar      1 <0>        -0.0446
      8 C8          0.0573   -2.8770    2.4381 C.2       1 <0>         0.2516
      9 C9          0.4045   -4.1781    2.3498 C.2       1 <0>        -0.3104
     10 C10         0.7637   -4.7851    1.0252 C.3       1 <0>         0.2224
     11 H1          0.5083   -5.8447    1.0332 H         1 <0>         0.1242
     12 O1          0.0510   -4.1355   -0.0297 O.3       1 <0>        -0.2950
     13 C11         2.2444   -4.6310    0.7913 C.ar      1 <0>        -0.1150
     14 C12         2.7503   -3.4236    0.3452 C.ar      1 <0>        -0.0882
     15 C13         4.1065   -3.2788    0.1293 C.ar      1 <0>        -0.0945
     16 C14         4.9633   -4.3481    0.3614 C.ar      1 <0>        -0.0787
     17 C15         4.4514   -5.5597    0.8101 C.ar      1 <0>        -0.1319
     18 C16         3.0948   -5.6955    1.0287 C.ar      1 <0>        -0.0863
     19 S1          6.6945   -4.1682    0.0868 S.3       1 <0>        -0.1186
     20 C17         7.3781   -5.7925    0.5169 C.3       1 <0>        -0.1441
     21 C18         0.4197   -4.9966    3.6212 C.3       1 <0>         0.3462
     22 H2          1.4227   -5.4031    3.7517 H         1 <0>         0.0974
     23 N1          0.0503   -4.2835    4.8528 N.pl3     1 <0>        -0.4493
     24 C19        -0.2711   -2.9594    4.7731 C.2       1 <0>         0.5773
     25 N2         -0.2613   -2.3128    3.6288 N.2       1 <0>        -0.6050
     26 N3         -0.5668   -2.5580    6.0496 N.pl3     1 <0>        -0.6186
     27 C20        -0.4237   -3.6404    6.8836 C.2       1 <0>         0.2662
     28 N4         -0.0590   -4.6700    6.1893 N.2       1 <0>        -0.2556
     29 C21        -0.5329   -6.1514    3.4479 C.2       1 <0>        -0.1680
     30 C22        -0.2612   -7.4436    3.1420 C.2       1 <0>        -0.1412
     31 C23        -1.3070   -8.3410    3.0337 C.2       1 <0>        -0.1562
     32 C24        -2.5733   -7.9023    3.2366 C.2       1 <0>        -0.1689
     33 S2         -2.3116   -6.1740    3.5999 S.3       1 <0>         0.0580
     34 H3          1.0042    1.8801    0.0026 H         1 <0>         0.0696
     35 H4         -0.5455    1.8639   -0.8728 H         1 <0>         0.0669
     36 H5         -0.5286    1.8543    0.9071 H         1 <0>         0.0663
     37 H6         -0.0052   -0.1357   -2.1304 H         1 <0>         0.1321
     38 H7          0.0240   -2.5947   -2.1685 H         1 <0>         0.1370
     39 H8          0.0250   -0.1654    2.1354 H         1 <0>         0.1362
     40 H9          2.0838   -2.5931    0.1651 H         1 <0>         0.1333
     41 H10         4.5007   -2.3359   -0.2197 H         1 <0>         0.1289
     42 H11         5.1144   -6.3928    0.9915 H         1 <0>         0.1254
     43 H12         2.6967   -6.6356    1.3813 H         1 <0>         0.1262
     44 H13         7.1488   -6.0190    1.5582 H         1 <0>         0.0837
     45 H14         6.9373   -6.5541   -0.1262 H         1 <0>         0.0847
     46 H15         8.4591   -5.7803    0.3773 H         1 <0>         0.1102
     47 H16        -0.5890   -3.6331    7.9509 H         1 <0>         0.2466
     48 H17         0.7572   -7.7672    2.9850 H         1 <0>         0.1338
     49 H18        -1.1179   -9.3762    2.7907 H         1 <0>         0.1368
     50 H19        -3.4999   -8.4555    3.1936 H         1 <0>         0.1869
     51 H20        -0.8310   -1.6641    6.3180 H         1 <0>         0.4479
@<TRIPOS>BOND
     1    1    2 1
     2    1   34 1
     3    1   35 1
     4    1   36 1
     5    2    7 ar
     6    2    3 ar
     7    3    4 ar
     8    3   37 1
     9    4    5 ar
    10    4   38 1
    11    5   12 1
    12    5    6 ar
    13    6    7 ar
    14    6    8 1
    15    7   39 1
    16    8   25 1
    17    8    9 2
    18    9   10 1
    19    9   21 1
    20   10   11 1
    21   10   12 1
    22   10   13 1
    23   13   18 ar
    24   13   14 ar
    25   14   15 ar
    26   14   40 1
    27   15   16 ar
    28   15   41 1
    29   16   17 ar
    30   16   19 1
    31   17   18 ar
    32   17   42 1
    33   18   43 1
    34   19   20 1
    35   20   44 1
    36   20   45 1
    37   20   46 1
    38   21   22 1
    39   21   23 1
    40   21   29 1
    41   23   28 1
    42   23   24 1
    43   24   25 2
    44   24   26 1
    45   26   27 1
    46   26   51 1
    47   27   28 2
    48   27   47 1
    49   29   33 1
    50   29   30 2
    51   30   31 1
    52   30   48 1
    53   31   32 2
    54   31   49 1
    55   32   33 1
    56   32   50 1
@<TRIPOS>MOLECULE
ZINC49415665
   51    56     0     0     0
SMALL
USER_CHARGES

@<TRIPOS>ATOM
      1 C1          0.0002    1.3777    0.0018 C.ar      1 <0>        -0.1386
      2 C2          1.1883    2.0855    0.0044 C.ar      1 <0>        -0.0794
      3 C3          2.3927    1.4116   -0.0009 C.ar      1 <0>        -0.1346
      4 C4          2.4146    0.0212   -0.0078 C.ar      1 <0>         0.1270
      5 C5          1.2231   -0.6850   -0.0096 C.ar      1 <0>        -0.1326
      6 C6          0.0182   -0.0037   -0.0055 C.ar      1 <0>        -0.0635
      7 C7          1.2194   -2.1894   -0.0140 C.3       1 <0>        -0.0101
      8 C8          2.5609   -2.7214   -0.4385 C.ar      1 <0>        -0.1545
      9 C9          2.6678   -4.0374   -0.8539 C.ar      1 <0>        -0.0821
     10 C10         3.8910   -4.5453   -1.2464 C.ar      1 <0>        -0.1354
     11 C11         5.0145   -3.7393   -1.2254 C.ar      1 <0>        -0.0777
     12 C12         4.9138   -2.4263   -0.8125 C.ar      1 <0>        -0.1320
     13 C13         3.6842   -1.9114   -0.4166 C.ar      1 <0>         0.1319
     14 O1          3.6072   -0.6211   -0.0117 O.3       1 <0>        -0.2416
     15 C14         0.9026   -2.6894    1.3719 C.2       1 <0>         0.5214
     16 O2          0.7007   -1.8997    2.2701 O.2       1 <0>        -0.4981
     17 N1          0.8436   -4.0140    1.6133 N.am      1 <0>        -0.6524
     18 C15         0.6651   -4.4791    2.9189 C.ar      1 <0>         0.1659
     19 C16         1.0476   -3.7023    3.9907 C.ar      1 <0>        -0.1116
     20 C17         0.8748   -4.1535    5.2956 C.ar      1 <0>        -0.0915
     21 C18         0.3238   -5.3735    5.5479 C.ar      1 <0>        -0.1084
     22 C19        -0.0785   -6.1941    4.4824 C.ar      1 <0>        -0.0992
     23 C20         0.0863   -5.7456    3.1497 C.ar      1 <0>         0.1432
     24 N2         -0.2999   -6.5211    2.1321 N.ar      1 <0>        -0.5031
     25 C21        -0.8401   -7.7027    2.3402 C.ar      1 <0>         0.3818
     26 C22        -1.0352   -8.2017    3.6341 C.ar      1 <0>        -0.1830
     27 C23        -0.6518   -7.4611    4.7126 C.ar      1 <0>        -0.0240
     28 N3         -1.2284   -8.4770    1.2453 N.pl3     1 <0>        -0.3966
     29 C24        -1.8050   -9.7146    1.3085 C.2       1 <0>        -0.0158
     30 C25        -2.0335  -10.1372    0.0491 C.2       1 <0>        -0.1768
     31 C26        -1.5830   -9.1269   -0.8252 C.2       1 <0>        -0.1922
     32 C27        -1.1006   -8.1214   -0.0681 C.2       1 <0>         0.0100
     33 H1         -0.9422    1.9051    0.0100 H         1 <0>         0.1306
     34 H2          1.1736    3.1654    0.0101 H         1 <0>         0.1358
     35 H3          3.3200    1.9652    0.0000 H         1 <0>         0.1368
     36 H4         -0.9111   -0.5540   -0.0075 H         1 <0>         0.1265
     37 H5          0.4564   -2.5447   -0.7066 H         1 <0>         0.1225
     38 H6          1.7921   -4.6692   -0.8709 H         1 <0>         0.1271
     39 H7          3.9700   -5.5728   -1.5696 H         1 <0>         0.1330
     40 H8          5.9706   -4.1374   -1.5317 H         1 <0>         0.1377
     41 H9          5.7918   -1.7975   -0.7967 H         1 <0>         0.1390
     42 H10         0.9250   -4.6446    0.8807 H         1 <0>         0.4164
     43 H11         1.4872   -2.7315    3.8158 H         1 <0>         0.1542
     44 H12         1.1824   -3.5276    6.1202 H         1 <0>         0.1351
     45 H13         0.1969   -5.7092    6.5665 H         1 <0>         0.1354
     46 H14        -1.4812   -9.1748    3.7771 H         1 <0>         0.1460
     47 H15        -0.7944   -7.8305    5.7174 H         1 <0>         0.1530
     48 H16        -2.0372  -10.2598    2.2114 H         1 <0>         0.1686
     49 H17        -2.4800  -11.0777   -0.2379 H         1 <0>         0.1455
     50 H18        -1.6214   -9.1522   -1.9042 H         1 <0>         0.1439
     51 H19        -0.6831   -7.1957   -0.4359 H         1 <0>         0.1665
@<TRIPOS>BOND
     1    1    6 ar
     2    1    2 ar
     3    1   33 1
     4    2    3 ar
     5    2   34 1
     6    3    4 ar
     7    3   35 1
     8    4   14 1
     9    4    5 ar
    10    5    6 ar
    11    5    7 1
    12    6   36 1
    13    7    8 1
    14    7   15 1
    15    7   37 1
    16    8   13 ar
    17    8    9 ar
    18    9   10 ar
    19    9   38 1
    20   10   11 ar
    21   10   39 1
    22   11   12 ar
    23   11   40 1
    24   12   13 ar
    25   12   41 1
    26   13   14 1
    27   15   16 2
    28   15   17 am
    29   17   18 1
    30   17   42 1
    31   18   23 ar
    32   18   19 ar
    33   19   20 ar
    34   19   43 1
    35   20   21 ar
    36   20   44 1
    37   21   22 ar
    38   21   45 1
    39   22   27 ar
    40   22   23 ar
    41   23   24 ar
    42   24   25 ar
    43   25   26 ar
    44   25   28 1
    45   26   27 ar
    46   26   46 1
    47   27   47 1
    48   28   32 1
    49   28   29 1
    50   29   30 2
    51   29   48 1
    52   30   31 1
    53   30   49 1
    54   31   32 2
    55   31   50 1
    56   32   51 1
@<TRIPOS>MOLECULE
ZINC03893847
   49    52     0     0     0
SMALL
USER_CHARGES
4-ethyl-N-(7-methyl-6,7,8,9-tetrahydrodibenzofuran-2-yl)-benzenesulfonamide
@<TRIPOS>ATOM
      1 C1         12.0593   -0.7095    0.2767 C.3       1 <0>        -0.1487
      2 C2         11.2556   -0.6535   -1.0240 C.3       1 <0>        -0.0954
      3 C3         10.2730    0.4872   -0.9586 C.ar      1 <0>        -0.0215
      4 C4         10.6415    1.7432   -1.4032 C.ar      1 <0>        -0.1400
      5 C5          9.7398    2.7894   -1.3441 C.ar      1 <0>        -0.0153
      6 C6          8.4696    2.5795   -0.8408 C.ar      1 <0>        -0.6803
      7 C7          8.1029    1.3247   -0.3914 C.ar      1 <0>        -0.0100
      8 C8          9.0031    0.2775   -0.4545 C.ar      1 <0>        -0.1387
      9 S1          7.3203    3.9129   -0.7655 S.o2      1 <0>         2.6881
     10 O1          8.0842    5.1104   -0.8092 O.2       1 <0>        -0.9534
     11 O2          6.4257    3.6184    0.2985 O.2       1 <0>        -0.9471
     12 N1          6.4280    3.8696   -2.1599 N.pl3     1 <0>        -1.0610
     13 C9          5.6032    2.7717   -2.4288 C.ar      1 <0>         0.1004
     14 C10         5.9992    1.8445   -3.3864 C.ar      1 <0>        -0.0903
     15 C11         5.2320    0.7369   -3.7021 C.ar      1 <0>        -0.0963
     16 C12         4.0306    0.5781   -3.0179 C.ar      1 <0>         0.0616
     17 C13         3.6249    1.5216   -2.0419 C.ar      1 <0>        -0.1164
     18 C14         4.4080    2.6352   -1.7325 C.ar      1 <0>        -0.0457
     19 C15         2.3483    1.0417   -1.5489 C.2       1 <0>        -0.1678
     20 C16         2.0828   -0.0959   -2.2206 C.2       1 <0>         0.0287
     21 O3          3.0805   -0.3612   -3.0856 O.3       1 <0>        -0.1844
     22 C17         0.8364   -0.9225   -2.0053 C.3       1 <0>        -0.0384
     23 C18         0.1991   -0.5096   -0.6742 C.3       1 <0>        -0.0890
     24 H1          0.8305   -0.8424    0.1496 H         1 <0>         0.0794
     25 C19         0.0592    1.0147   -0.6267 C.3       1 <0>        -0.1182
     26 C20         1.4508    1.6469   -0.5016 C.3       1 <0>        -0.0514
     27 C21        -1.1834   -1.1528   -0.5494 C.3       1 <0>        -0.1479
     28 H2         12.7700   -1.5345    0.2294 H         1 <0>         0.0636
     29 H3         12.5992    0.2279    0.4108 H         1 <0>         0.0582
     30 H4         11.3813   -0.8616    1.1165 H         1 <0>         0.0580
     31 H5         10.7157   -1.5908   -1.1581 H         1 <0>         0.0783
     32 H6         11.9337   -0.5013   -1.8638 H         1 <0>         0.0786
     33 H7         11.6337    1.9070   -1.7971 H         1 <0>         0.1331
     34 H8         10.0277    3.7706   -1.6915 H         1 <0>         0.1412
     35 H9          7.1119    1.1617    0.0059 H         1 <0>         0.1372
     36 H10         8.7151   -0.7038   -0.1074 H         1 <0>         0.1320
     37 H11         6.4771    4.6052   -2.7902 H         1 <0>         0.4258
     38 H12         6.9368    1.9939   -3.9011 H         1 <0>         0.1373
     39 H13         5.5525    0.0250   -4.4484 H         1 <0>         0.1453
     40 H14         4.1005    3.3550   -0.9884 H         1 <0>         0.1473
     41 H15         1.0997   -1.9797   -1.9725 H         1 <0>         0.0886
     42 H16         0.1322   -0.7459   -2.8184 H         1 <0>         0.0921
     43 H17        -0.4187    1.3650   -1.5416 H         1 <0>         0.0683
     44 H18        -0.5478    1.2978    0.2332 H         1 <0>         0.0756
     45 H19         1.3793    2.7232   -0.6585 H         1 <0>         0.0786
     46 H20         1.8568    1.4449    0.4896 H         1 <0>         0.0798
     47 H21        -1.8147   -0.8201   -1.3733 H         1 <0>         0.0586
     48 H22        -1.0838   -2.2377   -0.5832 H         1 <0>         0.0589
     49 H23        -1.6368   -0.8589    0.3973 H         1 <0>         0.0624
@<TRIPOS>BOND
     1    1    2 1
     2    1   28 1
     3    1   29 1
     4    1   30 1
     5    2    3 1
     6    2   31 1
     7    2   32 1
     8    3    8 ar
     9    3    4 ar
    10    4    5 ar
    11    4   33 1
    12    5    6 ar
    13    5   34 1
    14    6    7 ar
    15    6    9 1
    16    7    8 ar
    17    7   35 1
    18    8   36 1
    19    9   10 2
    20    9   11 2
    21    9   12 1
    22   12   13 1
    23   12   37 1
    24   13   18 ar
    25   13   14 ar
    26   14   15 ar
    27   14   38 1
    28   15   16 ar
    29   15   39 1
    30   16   21 1
    31   16   17 ar
    32   17   18 ar
    33   17   19 1
    34   18   40 1
    35   19   26 1
    36   19   20 2
    37   20   21 1
    38   20   22 1
    39   22   23 1
    40   22   41 1
    41   22   42 1
    42   23   24 1
    43   23   25 1
    44   23   27 1
    45   25   26 1
    46   25   43 1
    47   25   44 1
    48   26   45 1
    49   26   46 1
    50   27   47 1
    51   27   48 1
    52   27   49 1
@<TRIPOS>MOLECULE
ZINC16880662
   53    56     0     0     0
SMALL
USER_CHARGES
3-[(2,5-dimethylphenyl)methyl]-2-hydroxy-6-methyl-5-(1-naphthylmethyl)pyrimidin-4-one
@<TRIPOS>ATOM
      1 C1          0.1443    4.6611    1.5410 C.3       1 <0>        -0.1156
      2 C2         -0.6354    3.4069    1.8411 C.ar      1 <0>        -0.0831
      3 C3          0.0249    2.2014    1.9900 C.ar      1 <0>        -0.1146
      4 C4         -0.6902    1.0511    2.2652 C.ar      1 <0>        -0.1095
      5 C5         -2.0658    1.1061    2.3925 C.ar      1 <0>        -0.0795
      6 C6         -2.7259    2.3113    2.2442 C.ar      1 <0>        -0.0947
      7 C7         -2.0101    3.4627    1.9731 C.ar      1 <0>        -0.1062
      8 C8         -4.2253    2.3712    2.3825 C.3       1 <0>         0.1346
      9 N1         -4.6834    3.7421    2.1437 N.am      1 <0>        -0.5120
     10 C9         -5.0002    4.1422    0.8937 C.2       1 <0>         0.5428
     11 O1         -4.9093    3.3717   -0.0478 O.2       1 <0>        -0.5104
     12 C10        -5.4368    5.4654    0.6982 C.2       1 <0>        -0.2924
     13 C11        -5.5243    6.2955    1.7768 C.2       1 <0>         0.2199
     14 N2         -5.1995    5.8504    2.9896 N.2       1 <0>        -0.5875
     15 C12        -4.7959    4.6129    3.1800 C.2       1 <0>         0.5933
     16 O2         -4.4831    4.2029    4.4262 O.3       1 <0>        -0.4548
     17 C13        -5.9895    7.7175    1.5965 C.3       1 <0>        -0.1130
     18 C14        -5.8019    5.9567   -0.6789 C.3       1 <0>        -0.0097
     19 C15        -4.5621    6.4445   -1.3833 C.ar      1 <0>        -0.0572
     20 C16        -3.3420    6.3049   -0.7962 C.ar      1 <0>        -0.1064
     21 C17        -2.1848    6.7498   -1.4320 C.ar      1 <0>        -0.1101
     22 C18        -2.2407    7.3367   -2.6590 C.ar      1 <0>        -0.1120
     23 C19        -3.4823    7.4977   -3.2966 C.ar      1 <0>        -0.0487
     24 C20        -4.6590    7.0406   -2.6519 C.ar      1 <0>        -0.0465
     25 C21        -5.9015    7.2064   -3.2875 C.ar      1 <0>        -0.1067
     26 C22        -5.9574    7.7931   -4.5142 C.ar      1 <0>        -0.1165
     27 C23        -4.7998    8.2387   -5.1500 C.ar      1 <0>        -0.1171
     28 C24        -3.5799    8.0993   -4.5631 C.ar      1 <0>        -0.1063
     29 C25        -2.8455   -0.1481    2.6926 C.3       1 <0>        -0.1201
     30 H1          0.2326    4.7845    0.4616 H         1 <0>         0.0718
     31 H2          1.1388    4.5845    1.9805 H         1 <0>         0.0690
     32 H3         -0.3745    5.5214    1.9638 H         1 <0>         0.0636
     33 H4          1.0995    2.1584    1.8909 H         1 <0>         0.1242
     34 H5         -0.1744    0.1093    2.3812 H         1 <0>         0.1263
     35 H6         -2.5255    4.4052    1.8613 H         1 <0>         0.1066
     36 H7         -4.6844    1.7027    1.6541 H         1 <0>         0.1159
     37 H8         -4.5100    2.0630    3.3885 H         1 <0>         0.1126
     38 H9         -4.5758    4.8511    5.1378 H         1 <0>         0.4417
     39 H10        -7.0733    7.7616    1.7041 H         1 <0>         0.0900
     40 H11        -5.5233    8.3507    2.3514 H         1 <0>         0.0843
     41 H12        -5.7083    8.0686    0.6037 H         1 <0>         0.0863
     42 H13        -6.2468    5.1414   -1.2494 H         1 <0>         0.0927
     43 H14        -6.5177    6.7744   -0.5951 H         1 <0>         0.0912
     44 H15        -3.2698    5.8426    0.1772 H         1 <0>         0.1092
     45 H16        -1.2291    6.6269   -0.9443 H         1 <0>         0.1188
     46 H17        -1.3354    7.6770   -3.1397 H         1 <0>         0.1254
     47 H18        -6.8068    6.8660   -2.8069 H         1 <0>         0.1271
     48 H19        -6.9130    7.9156   -5.0022 H         1 <0>         0.1228
     49 H20        -4.8721    8.7013   -6.1232 H         1 <0>         0.1223
     50 H21        -2.6916    8.4493   -5.0677 H         1 <0>         0.1259
     51 H22        -2.8866   -0.3011    3.7711 H         1 <0>         0.0745
     52 H23        -3.8578   -0.0491    2.3008 H         1 <0>         0.0663
     53 H24        -2.3560   -1.0013    2.2230 H         1 <0>         0.0714
@<TRIPOS>BOND
     1    1    2 1
     2    1   30 1
     3    1   31 1
     4    1   32 1
     5    2    7 ar
     6    2    3 ar
     7    3    4 ar
     8    3   33 1
     9    4    5 ar
    10    4   34 1
    11    5    6 ar
    12    5   29 1
    13    6    7 ar
    14    6    8 1
    15    7   35 1
    16    8    9 1
    17    8   36 1
    18    8   37 1
    19    9   15 1
    20    9   10 am
    21   10   11 2
    22   10   12 1
    23   12   13 2
    24   12   18 1
    25   13   14 1
    26   13   17 1
    27   14   15 2
    28   15   16 1
    29   16   38 1
    30   17   39 1
    31   17   40 1
    32   17   41 1
    33   18   19 1
    34   18   42 1
    35   18   43 1
    36   19   24 ar
    37   19   20 ar
    38   20   21 ar
    39   20   44 1
    40   21   22 ar
    41   21   45 1
    42   22   23 ar
    43   22   46 1
    44   23   28 ar
    45   23   24 ar
    46   24   25 ar
    47   25   26 ar
    48   25   47 1
    49   26   27 ar
    50   26   48 1
    51   27   28 ar
    52   27   49 1
    53   28   50 1
    54   29   51 1
    55   29   52 1
    56   29   53 1
@<TRIPOS>MOLECULE
ZINC33252581
   42    45     0     0     0
SMALL
USER_CHARGES
N-(2-chloro-4-fluoro-phenyl)-7-(4-fluorophenyl)-5,6-dimethyl-pyrrolo[2,3-d]pyrimidin-4-amine
@<TRIPOS>ATOM
      1 C1          4.3627   -1.6926   -0.1068 C.3       1 <0>        -0.0936
      2 C2          3.7859   -0.3078    0.0372 C.2       1 <0>        -0.1323
      3 C3          4.4754    0.8424    0.1134 C.2       1 <0>         0.0798
      4 N1          3.6068    1.8977    0.2391 N.pl3     1 <0>        -0.4127
      5 C4          2.3149    1.4418    0.2468 C.ar      1 <0>         0.3544
      6 C5          2.3687    0.0410    0.1208 C.ar      1 <0>        -0.2416
      7 C6          1.1650   -0.6796    0.1019 C.ar      1 <0>         0.4822
      8 N2          0.0235   -0.0042    0.2041 N.ar      1 <0>        -0.5863
      9 C7          0.0189    1.3113    0.3207 C.ar      1 <0>         0.3565
     10 N3          1.1226    2.0271    0.3430 N.ar      1 <0>        -0.5537
     11 N4          1.1651   -2.0581   -0.0205 N.pl3     1 <0>        -0.6492
     12 C8         -0.0342   -2.7708    0.0923 C.ar      1 <0>         0.1702
     13 C9         -1.1327   -2.1899    0.7118 C.ar      1 <0>        -0.1013
     14 C10        -2.3154   -2.8947    0.8217 C.ar      1 <0>        -0.1209
     15 C11        -2.4068   -4.1801    0.3146 C.ar      1 <0>         0.0845
     16 C12        -1.3131   -4.7623   -0.3033 C.ar      1 <0>        -0.1211
     17 C13        -0.1291   -4.0588   -0.4207 C.ar      1 <0>        -0.0552
     18 Cl1         1.2398   -4.7859   -1.2024 Cl        1 <0>        -0.0556
     19 F1         -3.5649   -4.8673    0.4235 F         1 <0>        -0.1340
     20 C14         3.9856    3.2436    0.3434 C.ar      1 <0>         0.1077
     21 C15         4.6266    3.8694   -0.7172 C.ar      1 <0>        -0.0788
     22 C16         4.9939    5.1968   -0.6148 C.ar      1 <0>        -0.1413
     23 C17         4.7335    5.9003    0.5492 C.ar      1 <0>         0.1131
     24 C18         4.0993    5.2762    1.6103 C.ar      1 <0>        -0.1396
     25 C19         3.7254    3.9505    1.5095 C.ar      1 <0>        -0.0665
     26 F2          5.0981    7.1973    0.6495 F         1 <0>        -0.1315
     27 C20         5.9773    0.9570    0.0676 C.3       1 <0>        -0.0973
     28 H1          5.4604   -1.6307   -0.1422 H         1 <0>         0.0790
     29 H2          3.9911   -2.1498   -1.0357 H         1 <0>         0.0689
     30 H3          4.0576   -2.3080    0.7524 H         1 <0>         0.0703
     31 H4         -0.9302    1.8209    0.3965 H         1 <0>         0.2044
     32 H5          2.1077   -2.5937   -0.2064 H         1 <0>         0.4471
     33 H6         -1.0625   -1.1873    1.1073 H         1 <0>         0.1811
     34 H7         -3.1700   -2.4428    1.3033 H         1 <0>         0.1453
     35 H8         -1.3866   -5.7649   -0.6981 H         1 <0>         0.1488
     36 H9          4.8339    3.3198   -1.6235 H         1 <0>         0.1394
     37 H10         5.4882    5.6854   -1.4414 H         1 <0>         0.1469
     38 H11         3.8974    5.8264    2.5175 H         1 <0>         0.1467
     39 H12         3.2312    3.4640    2.3374 H         1 <0>         0.1376
     40 H13         6.2670    2.0149    0.1505 H         1 <0>         0.0726
     41 H14         6.3473    0.5491   -0.8846 H         1 <0>         0.0881
     42 H15         6.4139    0.3907    0.9035 H         1 <0>         0.0879
@<TRIPOS>BOND
     1    1    2 1
     2    1   28 1
     3    1   29 1
     4    1   30 1
     5    2    6 1
     6    2    3 2
     7    3    4 1
     8    3   27 1
     9    4    5 1
    10    4   20 1
    11    5   10 ar
    12    5    6 ar
    13    6    7 ar
    14    7    8 ar
    15    7   11 1
    16    8    9 ar
    17    9   10 ar
    18    9   31 1
    19   11   12 1
    20   11   32 1
    21   12   17 ar
    22   12   13 ar
    23   13   14 ar
    24   13   33 1
    25   14   15 ar
    26   14   34 1
    27   15   16 ar
    28   15   19 1
    29   16   17 ar
    30   16   35 1
    31   17   18 1
    32   20   25 ar
    33   20   21 ar
    34   21   22 ar
    35   21   36 1
    36   22   23 ar
    37   22   37 1
    38   23   24 ar
    39   23   26 1
    40   24   25 ar
    41   24   38 1
    42   25   39 1
    43   27   40 1
    44   27   41 1
    45   27   42 1
@<TRIPOS>MOLECULE
ZINC46607907
   45    47     0     0     0
SMALL
USER_CHARGES

@<TRIPOS>ATOM
      1 C1          2.8407   -1.3464    0.2650 C.3       1 <0>        -0.1590
      2 C2          2.1891   -0.3541    1.2302 C.3       1 <0>         0.2035
      3 H1          2.5437   -0.5387    2.2443 H         1 <0>         0.0905
      4 C3          2.5335    1.0747    0.8139 C.2       1 <0>        -0.1415
      5 C4          3.7946    1.6401    0.9957 C.2       1 <0>        -0.1447
      6 C5          4.0296    2.9117    0.5984 C.2       1 <0>        -0.1738
      7 S1          2.4423    3.3879   -0.0688 S.3       1 <0>         0.0468
      8 C6          1.5883    1.8632    0.2338 C.2       1 <0>        -0.1319
      9 C7          0.1662    1.5200   -0.0697 C.3       1 <0>        -0.0604
     10 C8          0.0028   -0.0063   -0.0022 C.3       1 <0>         0.1354
     11 N1          0.7278   -0.4978    1.1802 N.am      1 <0>        -0.6245
     12 C9          0.0620   -1.0703    2.2026 C.2       1 <0>         0.7145
     13 O1         -1.1535   -1.0992    2.1962 O.2       1 <0>        -0.5829
     14 N2          0.7435   -1.6108    3.2321 N.am      1 <0>        -0.7406
     15 C10         0.0264   -2.3284    4.2890 C.3       1 <0>         0.2012
     16 H2         -0.9386   -1.8519    4.4614 H         1 <0>         0.1023
     17 C11        -0.1913   -3.7813    3.8616 C.3       1 <0>        -0.1587
     18 C12         0.8375   -2.2945    5.5587 C.ar      1 <0>        -0.0579
     19 C13         2.2113   -2.4430    5.5050 C.ar      1 <0>        -0.1389
     20 C14         2.9582   -2.4123    6.6680 C.ar      1 <0>        -0.0755
     21 C15         2.3332   -2.2335    7.8872 C.ar      1 <0>        -0.1886
     22 C16         0.9553   -2.0842    7.9436 C.ar      1 <0>         0.1110
     23 C17         0.2086   -2.1093    6.7744 C.ar      1 <0>        -0.1215
     24 O2          0.3383   -1.9081    9.1416 O.3       1 <0>        -0.3193
     25 C18         1.1705   -1.8869   10.3031 C.3       1 <0>         0.4120
     26 F1          1.8557   -3.1021   10.4082 F         1 <0>        -0.1974
     27 F2          2.0921   -0.8396   10.1974 F         1 <0>        -0.1976
     28 H3          2.4827   -1.1573   -0.7470 H         1 <0>         0.0651
     29 H4          3.9235   -1.2256    0.2958 H         1 <0>         0.0719
     30 H5          2.5800   -2.3633    0.5585 H         1 <0>         0.0651
     31 H6          4.5841    1.0631    1.4540 H         1 <0>         0.1323
     32 H7          4.9397    3.4890    0.6673 H         1 <0>         0.1877
     33 H8         -0.4881    1.9906    0.6641 H         1 <0>         0.0906
     34 H9         -0.0894    1.8712   -1.0694 H         1 <0>         0.0949
     35 H10        -1.0539   -0.2593    0.0838 H         1 <0>         0.1071
     36 H11         0.4177   -0.4604   -0.9021 H         1 <0>         0.0767
     37 H12         1.7088   -1.5246    3.2733 H         1 <0>         0.3947
     38 H13        -0.7779   -3.8059    2.9433 H         1 <0>         0.0679
     39 H14         0.7737   -4.2578    3.6892 H         1 <0>         0.0595
     40 H15        -0.7248   -4.3153    4.6480 H         1 <0>         0.0703
     41 H16         2.7016   -2.5836    4.5531 H         1 <0>         0.1241
     42 H17         4.0310   -2.5286    6.6235 H         1 <0>         0.1320
     43 H18         2.9170   -2.2103    8.7955 H         1 <0>         0.1350
     44 H19        -0.8638   -1.9886    6.8153 H         1 <0>         0.1386
     45 H20         0.5535   -1.7398   11.1895 H         1 <0>         0.1842
@<TRIPOS>BOND
     1    1    2 1
     2    1   28 1
     3    1   29 1
     4    1   30 1
     5    2    3 1
     6    2   11 1
     7    2    4 1
     8    4    8 2
     9    4    5 1
    10    5    6 2
    11    5   31 1
    12    6    7 1
    13    6   32 1
    14    7    8 1
    15    8    9 1
    16    9   10 1
    17    9   33 1
    18    9   34 1
    19   10   11 1
    20   10   35 1
    21   10   36 1
    22   11   12 am
    23   12   13 2
    24   12   14 am
    25   14   15 1
    26   14   37 1
    27   15   16 1
    28   15   17 1
    29   15   18 1
    30   17   38 1
    31   17   39 1
    32   17   40 1
    33   18   23 ar
    34   18   19 ar
    35   19   20 ar
    36   19   41 1
    37   20   21 ar
    38   20   42 1
    39   21   22 ar
    40   21   43 1
    41   22   23 ar
    42   22   24 1
    43   23   44 1
    44   24   25 1
    45   25   26 1
    46   25   27 1
    47   25   45 1
@<TRIPOS>MOLECULE
ZINC16974640
   33    35     0     0     0
SMALL
USER_CHARGES

@<TRIPOS>ATOM
      1 C1         -0.0167    1.3792    0.0096 C.ar      1 <0>        -0.0924
      2 C2          1.1664    2.0886    0.0021 C.ar      1 <0>        -0.0861
      3 C3          2.3858    1.4073   -0.0132 C.ar      1 <0>         0.1008
      4 C4          2.3980    0.0104   -0.0208 C.ar      1 <0>        -0.1425
      5 C5          1.2070   -0.6866   -0.0132 C.ar      1 <0>        -0.0703
      6 C6          0.0021   -0.0041    0.0020 C.ar      1 <0>        -0.0965
      7 Br1         1.2203   -2.5775   -0.0241 Br        1 <0>        -0.0400
      8 N1          3.5626    2.1049   -0.0211 N.2       1 <0>        -0.4559
      9 C7          4.5465    1.7433    0.7727 C.2       1 <0>         0.3770
     10 N2          4.5931    0.6986    1.6732 N.am      1 <0>        -0.6917
     11 C8          5.6827    0.4902    2.3917 C.2       1 <0>         0.5523
     12 O1          5.7376   -0.4281    3.1902 O.2       1 <0>        -0.4922
     13 C9          6.7925    1.3666    2.2089 C.2       1 <0>        -0.2469
     14 C10         8.0225    1.3575    2.8291 C.2       1 <0>         0.0782
     15 C11         8.9837    2.3248    2.4960 C.2       1 <0>        -0.1664
     16 C12        10.1989    2.3158    3.1088 C.2       1 <0>         0.0048
     17 C13        11.1676    3.2905    2.7731 C.2       1 <0>        -0.0230
     18 C14        12.4357    3.3956    3.3087 C.2       1 <0>        -0.1520
     19 C15        13.0416    4.4988    2.6870 C.2       1 <0>        -0.2205
     20 C16        12.1430    5.0115    1.8182 C.2       1 <0>        -0.0067
     21 O2         11.0194    4.2802    1.8679 O.3       1 <0>        -0.1650
     22 S1          6.1660    2.4747    0.9547 S.3       1 <0>         0.0933
     23 H1         -0.9599    1.9050    0.0260 H         1 <0>         0.1426
     24 H2          1.1500    3.1685    0.0078 H         1 <0>         0.1411
     25 H3          3.3372   -0.5227   -0.0330 H         1 <0>         0.1315
     26 H4         -0.9273   -0.5543    0.0083 H         1 <0>         0.1389
     27 H5          3.8247    0.1162    1.7792 H         1 <0>         0.4174
     28 H6          8.2473    0.6062    3.5717 H         1 <0>         0.1568
     29 H7          8.7590    3.0761    1.7534 H         1 <0>         0.1306
     30 H8         10.4237    1.5645    3.8513 H         1 <0>         0.1581
     31 H9         12.8752    2.7550    4.0590 H         1 <0>         0.1587
     32 H10        14.0397    4.8689    2.8695 H         1 <0>         0.1564
     33 H11        12.3047    5.8696    1.1826 H         1 <0>         0.2096
@<TRIPOS>BOND
     1    1    6 ar
     2    1    2 ar
     3    1   23 1
     4    2    3 ar
     5    2   24 1
     6    3    4 ar
     7    3    8 1
     8    4    5 ar
     9    4   25 1
    10    5    6 ar
    11    5    7 1
    12    6   26 1
    13    8    9 2
    14    9   22 1
    15    9   10 1
    16   10   11 am
    17   10   27 1
    18   11   12 2
    19   11   13 1
    20   13   14 2
    21   13   22 1
    22   14   15 1
    23   14   28 1
    24   15   16 2
    25   15   29 1
    26   16   17 1
    27   16   30 1
    28   17   21 1
    29   17   18 2
    30   18   19 1
    31   18   31 1
    32   19   20 2
    33   19   32 1
    34   20   21 1
    35   20   33 1
@<TRIPOS>MOLECULE
ZINC00103830
   41    42     0     0     0
SMALL
USER_CHARGES
sec-butyl 4-methyl-2-oxo-6-phenyl-3,6-dihydro-1H-pyrimidine-5-carboxylate
@<TRIPOS>ATOM
      1 C1          2.1765   -2.5664   -1.4198 C.3       1 <0>        -0.1580
      2 C2          2.1945   -2.7627    0.0974 C.3       1 <0>        -0.1174
      3 C3          0.9762   -2.0737    0.7153 C.3       1 <0>         0.0849
      4 H1          0.0685   -2.4453    0.2398 H         1 <0>         0.0829
      5 C4          0.9261   -2.3743    2.2147 C.3       1 <0>        -0.1717
      6 O1          1.0750   -0.6621    0.5155 O.3       1 <0>        -0.3326
      7 C5         -0.0820    0.0236    0.4060 C.2       1 <0>         0.5358
      8 O2         -1.1459   -0.5626    0.4784 O.2       1 <0>        -0.5169
      9 C6         -0.0582    1.4239    0.2070 C.2       1 <0>        -0.2811
     10 C7         -1.1925    2.1130   -0.0423 C.2       1 <0>         0.2558
     11 N1         -1.1687    3.4655   -0.2295 N.am      1 <0>        -0.6470
     12 C8         -0.0501    4.2006   -0.1934 C.2       1 <0>         0.7047
     13 O3         -0.1283    5.3997   -0.3764 O.2       1 <0>        -0.5612
     14 N2          1.1598    3.6543    0.0395 N.am      1 <0>        -0.7100
     15 C9          1.2417    2.2007    0.2602 C.3       1 <0>         0.2370
     16 H2          1.6929    2.0342    1.2383 H         1 <0>         0.0902
     17 C10         2.1695    1.6254   -0.7788 C.ar      1 <0>        -0.1074
     18 C11         2.0240    1.9792   -2.1072 C.ar      1 <0>        -0.0983
     19 C12         2.8777    1.4549   -3.0596 C.ar      1 <0>        -0.1242
     20 C13         3.8712    0.5697   -2.6849 C.ar      1 <0>        -0.1128
     21 C14         4.0134    0.2119   -1.3572 C.ar      1 <0>        -0.1191
     22 C15         3.1624    0.7396   -0.4042 C.ar      1 <0>        -0.0745
     23 C16        -2.5066    1.3784   -0.1094 C.3       1 <0>        -0.1405
     24 H3          3.0444   -3.0574   -1.8601 H         1 <0>         0.0561
     25 H4          1.2656   -3.0010   -1.8316 H         1 <0>         0.0498
     26 H5          2.2066   -1.5012   -1.6488 H         1 <0>         0.0668
     27 H6          3.1054   -2.3282    0.5092 H         1 <0>         0.0734
     28 H7          2.1644   -3.8280    0.3263 H         1 <0>         0.0801
     29 H8          1.8338   -2.0027    2.6902 H         1 <0>         0.0647
     30 H9          0.0582   -1.8833    2.6549 H         1 <0>         0.0612
     31 H10         0.8508   -3.4509    2.3671 H         1 <0>         0.0725
     32 H11        -2.0088    3.9187   -0.4020 H         1 <0>         0.4303
     33 H12         1.9575    4.2057    0.0617 H         1 <0>         0.4336
     34 H13         1.2454    2.6678   -2.4004 H         1 <0>         0.1103
     35 H14         2.7669    1.7347   -4.0968 H         1 <0>         0.1193
     36 H15         4.5366    0.1580   -3.4293 H         1 <0>         0.1199
     37 H16         4.7896   -0.4796   -1.0645 H         1 <0>         0.1213
     38 H17         3.2735    0.4600    0.6330 H         1 <0>         0.1249
     39 H18        -2.9084    1.2600    0.8969 H         1 <0>         0.1012
     40 H19        -3.2103    1.9474   -0.7169 H         1 <0>         0.0726
     41 H20        -2.3516    0.3966   -0.5566 H         1 <0>         0.1231
@<TRIPOS>BOND
     1    1    2 1
     2    1   24 1
     3    1   25 1
     4    1   26 1
     5    2    3 1
     6    2   27 1
     7    2   28 1
     8    3    4 1
     9    3    5 1
    10    3    6 1
    11    5   29 1
    12    5   30 1
    13    5   31 1
    14    6    7 1
    15    7    8 2
    16    7    9 1
    17    9   15 1
    18    9   10 2
    19   10   11 1
    20   10   23 1
    21   11   12 am
    22   11   32 1
    23   12   13 2
    24   12   14 am
    25   14   15 1
    26   14   33 1
    27   15   16 1
    28   15   17 1
    29   17   22 ar
    30   17   18 ar
    31   18   19 ar
    32   18   34 1
    33   19   20 ar
    34   19   35 1
    35   20   21 ar
    36   20   36 1
    37   21   22 ar
    38   21   37 1
    39   22   38 1
    40   23   39 1
    41   23   40 1
    42   23   41 1
@<TRIPOS>MOLECULE
ZINC20384618
   34    35     0     0     0
SMALL
USER_CHARGES
[4-[(2-methoxyphenyl)amino]-2-methylsulfanyl-pyrimidin-5-yl]methanol
@<TRIPOS>ATOM
      1 C1         -1.6757    1.4611   -0.6228 C.3       1 <0>         0.0270
      2 O1         -1.7896    1.7950    0.7620 O.3       1 <0>        -0.3244
      3 C2         -1.3293    3.0168    1.1423 C.ar      1 <0>         0.0907
      4 C3         -0.7802    3.8749    0.2037 C.ar      1 <0>        -0.1868
      5 C4         -0.3134    5.1173    0.5917 C.ar      1 <0>        -0.1023
      6 C5         -0.3927    5.5071    1.9160 C.ar      1 <0>        -0.1305
      7 C6         -0.9386    4.6567    2.8588 C.ar      1 <0>        -0.0941
      8 C7         -1.4139    3.4107    2.4760 C.ar      1 <0>         0.1347
      9 N1         -1.9732    2.5497    3.4282 N.pl3     1 <0>        -0.6488
     10 C8         -2.5221    3.0658    4.5915 C.ar      1 <0>         0.4528
     11 C9         -2.9698    2.2127    5.6031 C.ar      1 <0>        -0.2637
     12 C10        -3.5099    2.7710    6.7451 C.ar      1 <0>         0.2132
     13 N2         -3.5874    4.0897    6.8478 N.ar      1 <0>        -0.5613
     14 C11        -3.1548    4.8757    5.8722 C.ar      1 <0>         0.3306
     15 N3         -2.6253    4.3797    4.7632 N.ar      1 <0>        -0.5475
     16 S1         -3.2802    6.6234    6.0574 S.3       1 <0>         0.0046
     17 C12        -4.0398    6.7120    7.6979 C.3       1 <0>        -0.1463
     18 C13        -2.8663    0.7169    5.4516 C.3       1 <0>         0.1458
     19 O2         -3.3910    0.0823    6.6195 O.3       1 <0>        -0.5970
     20 H1         -2.0826    0.4531   -0.7916 H         1 <0>         0.1018
     21 H2         -0.6167    1.4835   -0.9194 H         1 <0>         0.0571
     22 H3         -2.2402    2.1897   -1.2233 H         1 <0>         0.0570
     23 H4         -0.7171    3.5737   -0.8315 H         1 <0>         0.1306
     24 H5          0.1139    5.7851   -0.1416 H         1 <0>         0.1254
     25 H6         -0.0274    6.4787    2.2142 H         1 <0>         0.1275
     26 H7         -0.9990    4.9636    3.8925 H         1 <0>         0.1547
     27 H8         -1.9769    1.4638    3.2529 H         1 <0>         0.4485
     28 H9         -3.8649    2.1394    7.5460 H         1 <0>         0.1780
     29 H10        -4.1919    7.7656    7.9751 H         1 <0>         0.1077
     30 H11        -3.3793    6.2307    8.4342 H         1 <0>         0.0925
     31 H12        -5.0098    6.1935    7.6813 H         1 <0>         0.0923
     32 H13        -3.4419    0.3969    4.5705 H         1 <0>         0.0547
     33 H14        -1.8112    0.4335    5.3230 H         1 <0>         0.0552
     34 H15        -3.3999   -1.0153    6.6921 H         1 <0>         0.4203
@<TRIPOS>BOND
     1    1    2 1
     2    1   20 1
     3    1   21 1
     4    1   22 1
     5    2    3 1
     6    3    8 ar
     7    3    4 ar
     8    4    5 ar
     9    4   23 1
    10    5    6 ar
    11    5   24 1
    12    6    7 ar
    13    6   25 1
    14    7    8 ar
    15    7   26 1
    16    8    9 1
    17    9   10 1
    18    9   27 1
    19   10   15 ar
    20   10   11 ar
    21   11   12 ar
    22   11   18 1
    23   12   13 ar
    24   12   28 1
    25   13   14 ar
    26   14   15 ar
    27   14   16 1
    28   16   17 1
    29   17   29 1
    30   17   30 1
    31   17   31 1
    32   18   19 1
    33   18   32 1
    34   18   33 1
    35   19   34 1
@<TRIPOS>MOLECULE
ZINC40724580
   41    43     0     0     0
SMALL
USER_CHARGES

@<TRIPOS>ATOM
      1 C1          0.8377   -2.7801    1.3797 C.3       1 <0>        -0.1477
      2 C2         -0.1425   -2.7996    0.2051 C.3       1 <0>        -0.0864
      3 C3          0.6263   -2.7869   -1.0910 C.ar      1 <0>        -0.0781
      4 C4          0.9612   -1.5831   -1.6830 C.ar      1 <0>        -0.1040
      5 C5          1.6663   -1.5686   -2.8708 C.ar      1 <0>        -0.1109
      6 C6          2.0384   -2.7636   -3.4699 C.ar      1 <0>         0.0920
      7 C7          1.7011   -3.9703   -2.8737 C.ar      1 <0>        -0.1107
      8 C8          1.0005   -3.9790   -1.6832 C.ar      1 <0>        -0.1049
      9 O1          2.7317   -2.7521   -4.6386 O.3       1 <0>        -0.2449
     10 C9          4.0379   -2.3875   -4.6008 C.ar      1 <0>         0.3195
     11 C10         4.7682   -2.2492   -5.7801 C.ar      1 <0>         0.0356
     12 C11         6.1099   -1.8711   -5.6849 C.ar      1 <0>         0.4337
     13 N1          6.6353   -1.6591   -4.4812 N.ar      1 <0>        -0.5645
     14 C12         5.9087   -1.8014   -3.3912 C.ar      1 <0>         0.3306
     15 N2          4.6392   -2.1514   -3.4387 N.ar      1 <0>        -0.5683
     16 N3          6.8832   -1.7194   -6.8292 N.pl3     1 <0>        -0.6063
     17 C13         6.4707   -2.0732   -8.1953 C.3       1 <0>         0.1077
     18 C14         7.6575   -1.7553   -9.1291 C.3       1 <0>        -0.1332
     19 C15         8.8725   -1.7702   -8.1643 C.3       1 <0>        -0.1358
     20 C16         8.2509   -1.1710   -6.8755 C.3       1 <0>         0.1178
     21 N4          4.1721   -2.4838   -7.0291 N.pl3     1 <0>        -0.8832
     22 H1          1.4814   -3.6584    1.3304 H         1 <0>         0.0565
     23 H2          1.4485   -1.8787    1.3283 H         1 <0>         0.0567
     24 H3          0.2817   -2.7893    2.3171 H         1 <0>         0.0588
     25 H4         -0.7532   -3.7010    0.2564 H         1 <0>         0.0732
     26 H5         -0.7861   -1.9213    0.2543 H         1 <0>         0.0731
     27 H6          0.6710   -0.6532   -1.2166 H         1 <0>         0.1271
     28 H7          1.9273   -0.6281   -3.3330 H         1 <0>         0.1226
     29 H8          1.9893   -4.9018   -3.3381 H         1 <0>         0.1276
     30 H9          0.7416   -4.9179   -1.2164 H         1 <0>         0.1288
     31 H10         6.3664   -1.6215   -2.4297 H         1 <0>         0.1989
     32 H11         6.2324   -3.1355   -8.2472 H         1 <0>         0.0658
     33 H12         5.6022   -1.4817   -8.4852 H         1 <0>         0.0772
     34 H13         7.7631   -2.5246   -9.8941 H         1 <0>         0.0861
     35 H14         7.5380   -0.7718   -9.5836 H         1 <0>         0.0804
     36 H15         9.2249   -2.7878   -7.9955 H         1 <0>         0.0773
     37 H16         9.6768   -1.1370   -8.5390 H         1 <0>         0.0872
     38 H17         8.2216   -0.0831   -6.9360 H         1 <0>         0.0652
     39 H18         8.8165   -1.4879   -5.9992 H         1 <0>         0.0833
     40 H19         3.2216   -2.3317   -7.1491 H         1 <0>         0.3987
     41 H20         4.7106   -2.7980   -7.7721 H         1 <0>         0.3976
@<TRIPOS>BOND
     1    1    2 1
     2    1   22 1
     3    1   23 1
     4    1   24 1
     5    2    3 1
     6    2   25 1
     7    2   26 1
     8    3    8 ar
     9    3    4 ar
    10    4    5 ar
    11    4   27 1
    12    5    6 ar
    13    5   28 1
    14    6    7 ar
    15    6    9 1
    16    7    8 ar
    17    7   29 1
    18    8   30 1
    19    9   10 1
    20   10   15 ar
    21   10   11 ar
    22   11   12 ar
    23   11   21 1
    24   12   13 ar
    25   12   16 1
    26   13   14 ar
    27   14   15 ar
    28   14   31 1
    29   16   20 1
    30   16   17 1
    31   17   18 1
    32   17   32 1
    33   17   33 1
    34   18   19 1
    35   18   34 1
    36   18   35 1
    37   19   20 1
    38   19   36 1
    39   19   37 1
    40   20   38 1
    41   20   39 1
    42   21   40 1
    43   21   41 1
@<TRIPOS>MOLECULE
ZINC49122161
   41    43     0     0     0
SMALL
USER_CHARGES

@<TRIPOS>ATOM
      1 C1         -0.5058    1.5687   -0.1318 C.3       1 <0>        -0.1509
      2 C2         -0.3054    0.0523   -0.0953 C.3       1 <0>        -0.1223
      3 C3         -1.6675   -0.6406   -0.0224 C.3       1 <0>        -0.0939
      4 H1         -2.2259   -0.2554    0.8308 H         1 <0>         0.0976
      5 C4         -2.4487   -0.3664   -1.3090 C.3       1 <0>        -0.1286
      6 C5         -3.8109   -1.0594   -1.2361 C.3       1 <0>        -0.1134
      7 C6         -3.6080   -2.5672   -1.0741 C.3       1 <0>        -0.1315
      8 C7         -2.8268   -2.8414    0.2125 C.3       1 <0>        -0.1283
      9 C8         -1.4647   -2.1484    0.1396 C.3       1 <0>         0.1500
     10 H2         -0.9081   -2.3438    1.0562 H         1 <0>         0.1134
     11 N1         -0.7142   -2.6662   -1.0071 N.pl3     1 <0>        -0.3518
     12 C9          0.4734   -3.3206   -0.9867 C.2       1 <0>         0.2820
     13 N2          0.7802   -3.6024   -2.2356 N.2       1 <0>        -0.3086
     14 N3         -0.1309   -3.1704   -3.0307 N.2       1 <0>        -0.0473
     15 N4         -1.0735   -2.5967   -2.3645 N.2       1 <0>        -0.0694
     16 C10         1.2732   -3.6548    0.2125 C.ar      1 <0>        -0.0227
     17 C11         0.6623   -4.2434    1.3191 C.ar      1 <0>        -0.1507
     18 C12         1.4175   -4.5542    2.4389 C.ar      1 <0>         0.2127
     19 C13         2.7799   -4.2790    2.4578 C.ar      1 <0>        -0.1439
     20 C14         3.3871   -3.6958    1.3622 C.ar      1 <0>        -0.1003
     21 C15         2.6438   -3.3870    0.2378 C.ar      1 <0>         0.0921
     22 F1          3.2419   -2.8214   -0.8335 F         1 <0>        -0.1253
     23 N5          0.8084   -5.1447    3.5506 N.pl3     1 <0>        -0.8718
     24 H3          0.4646    2.0623   -0.1838 H         1 <0>         0.0563
     25 H4         -1.0969    1.8361   -1.0077 H         1 <0>         0.0592
     26 H5         -1.0280    1.8879    0.7701 H         1 <0>         0.0567
     27 H6          0.2168   -0.2670   -0.9973 H         1 <0>         0.0567
     28 H7          0.2857   -0.2151    0.7806 H         1 <0>         0.0631
     29 H8         -2.5932    0.7078   -1.4244 H         1 <0>         0.0694
     30 H9         -1.8904   -0.7517   -2.1622 H         1 <0>         0.0861
     31 H10        -4.3693   -0.6741   -0.3829 H         1 <0>         0.0598
     32 H11        -4.3674   -0.8640   -2.1527 H         1 <0>         0.0670
     33 H12        -4.5785   -3.0608   -1.0221 H         1 <0>         0.0666
     34 H13        -3.0497   -2.9524   -1.9273 H         1 <0>         0.0833
     35 H14        -3.3852   -2.4561    1.0657 H         1 <0>         0.0922
     36 H15        -2.6823   -3.9156    0.3279 H         1 <0>         0.0694
     37 H16        -0.3964   -4.4562    1.3038 H         1 <0>         0.1333
     38 H17         3.3659   -4.5217    3.3320 H         1 <0>         0.1398
     39 H18         4.4460   -3.4843    1.3826 H         1 <0>         0.1477
     40 H19        -0.1423   -5.3365    3.5379 H         1 <0>         0.4018
     41 H20         1.3367   -5.3623    4.3345 H         1 <0>         0.4044
@<TRIPOS>BOND
     1    1    2 1
     2    1   24 1
     3    1   25 1
     4    1   26 1
     5    2    3 1
     6    2   27 1
     7    2   28 1
     8    3    4 1
     9    3    9 1
    10    3    5 1
    11    5    6 1
    12    5   29 1
    13    5   30 1
    14    6    7 1
    15    6   31 1
    16    6   32 1
    17    7    8 1
    18    7   33 1
    19    7   34 1
    20    8    9 1
    21    8   35 1
    22    8   36 1
    23    9   10 1
    24    9   11 1
    25   11   15 1
    26   11   12 1
    27   12   13 2
    28   12   16 1
    29   13   14 1
    30   14   15 2
    31   16   21 ar
    32   16   17 ar
    33   17   18 ar
    34   17   37 1
    35   18   19 ar
    36   18   23 1
    37   19   20 ar
    38   19   38 1
    39   20   21 ar
    40   20   39 1
    41   21   22 1
    42   23   40 1
    43   23   41 1
@<TRIPOS>MOLECULE
ZINC54414082
   37    38     0     0     0
SMALL
USER_CHARGES

@<TRIPOS>ATOM
      1 C1          0.7774    2.7625   -0.0932 C.3       1 <0>        -0.1561
      2 C2          0.3259    1.3515    0.2893 C.3       1 <0>        -0.1373
      3 C3          0.6390    0.3876   -0.8569 C.3       1 <0>         0.1446
      4 H1          0.1830    0.7557   -1.7760 H         1 <0>         0.1181
      5 C4          0.0766   -0.9966   -0.5274 C.3       1 <0>        -0.1062
      6 C5         -1.4390   -0.9002   -0.3416 C.3       1 <0>        -0.1492
      7 C6          0.3897   -1.9605   -1.6736 C.3       1 <0>        -0.1548
      8 N1          2.0903    0.2953   -1.0348 N.pl3     1 <0>        -0.3613
      9 C7          2.8076    0.6240   -2.1381 C.2       1 <0>         0.2968
     10 N2          4.0726    0.3848   -1.8610 N.2       1 <0>        -0.3260
     11 N3          4.1929   -0.0685   -0.6656 N.2       1 <0>        -0.0411
     12 N4          3.0391   -0.1470   -0.0964 N.2       1 <0>        -0.0789
     13 C8          2.2707    1.1512   -3.4114 C.ar      1 <0>        -0.0742
     14 C9          1.0051    0.7605   -3.8514 C.ar      1 <0>        -0.0601
     15 C10         0.5062    1.2531   -5.0378 C.ar      1 <0>        -0.1728
     16 C11         1.2618    2.1388   -5.7973 C.ar      1 <0>         0.2184
     17 C12         2.5249    2.5309   -5.3617 C.ar      1 <0>         0.0203
     18 C13         3.0266    2.0448   -4.1722 C.ar      1 <0>        -0.0469
     19 F1          3.2574    3.3915   -6.1020 F         1 <0>        -0.1344
     20 N5          0.7537    2.6355   -6.9987 N.pl3     1 <0>        -0.8611
     21 H2          1.8505    2.7613   -0.2841 H         1 <0>         0.0490
     22 H3          0.2489    3.0821   -0.9913 H         1 <0>         0.0592
     23 H4          0.5543    3.4491    0.7234 H         1 <0>         0.0661
     24 H5          0.8544    1.0319    1.1874 H         1 <0>         0.0820
     25 H6         -0.7472    1.3526    0.4802 H         1 <0>         0.0955
     26 H7          0.5326   -1.3646    0.3917 H         1 <0>         0.0907
     27 H8         -1.8950   -0.5322   -1.2607 H         1 <0>         0.0605
     28 H9         -1.8397   -1.8863   -0.1068 H         1 <0>         0.0682
     29 H10        -1.6621   -0.2135    0.4749 H         1 <0>         0.0660
     30 H11        -0.0663   -1.5924   -2.5926 H         1 <0>         0.0591
     31 H12         1.4695   -2.0291   -1.8059 H         1 <0>         0.0515
     32 H13        -0.0110   -2.9466   -1.4387 H         1 <0>         0.0694
     33 H14         0.4171    0.0721   -3.2624 H         1 <0>         0.1373
     34 H15        -0.4731    0.9503   -5.3782 H         1 <0>         0.1424
     35 H16         4.0044    2.3522   -3.8318 H         1 <0>         0.1503
     36 H17        -0.1259    2.3626   -7.3030 H         1 <0>         0.4075
     37 H18         1.2804    3.2536   -7.5293 H         1 <0>         0.4074
@<TRIPOS>BOND
     1    1    2 1
     2    1   21 1
     3    1   22 1
     4    1   23 1
     5    2    3 1
     6    2   24 1
     7    2   25 1
     8    3    4 1
     9    3    5 1
    10    3    8 1
    11    5    6 1
    12    5    7 1
    13    5   26 1
    14    6   27 1
    15    6   28 1
    16    6   29 1
    17    7   30 1
    18    7   31 1
    19    7   32 1
    20    8   12 1
    21    8    9 1
    22    9   10 2
    23    9   13 1
    24   10   11 1
    25   11   12 2
    26   13   18 ar
    27   13   14 ar
    28   14   15 ar
    29   14   33 1
    30   15   16 ar
    31   15   34 1
    32   16   17 ar
    33   16   20 1
    34   17   18 ar
    35   17   19 1
    36   18   35 1
    37   20   36 1
    38   20   37 1
@<TRIPOS>MOLECULE
ZINC00869836
   38    39     0     0     0
SMALL
USER_CHARGES
N-sec-butyl-2-[6-(trifluoromethyl)-7,8-diazabicyclo[3.3.0]octa-6,9-dien-8-yl]-acetamide
@<TRIPOS>ATOM
      1 C1          2.5079    9.0544   -0.7921 C.3       1 <0>        -0.1548
      2 C2          1.0473    8.7866   -1.1606 C.3       1 <0>        -0.1318
      3 C3          0.8786    7.3136   -1.5388 C.3       1 <0>         0.1405
      4 H1          1.5808    7.0596   -2.3328 H         1 <0>         0.0898
      5 C4         -0.5515    7.0729   -2.0264 C.3       1 <0>        -0.1646
      6 N1          1.1426    6.4753   -0.3667 N.am      1 <0>        -0.7199
      7 C5          1.5499    5.2007   -0.5279 C.2       1 <0>         0.4965
      8 O1          1.6978    4.7477   -1.6431 O.2       1 <0>        -0.5148
      9 C6          1.8214    4.3383    0.6778 C.3       1 <0>         0.1101
     10 N2          2.2477    3.0068    0.2398 N.pl3     1 <0>        -0.3230
     11 C7          1.4373    1.9515   -0.0012 C.2       1 <0>         0.0743
     12 C8          2.2146    0.9141   -0.3832 C.2       1 <0>        -0.2151
     13 C9          3.5469    1.3496   -0.3757 C.2       1 <0>         0.0087
     14 N3          3.5659    2.6025   -0.0027 N.2       1 <0>        -0.2216
     15 C10         4.7503    0.5171   -0.7361 C.3       1 <0>         0.5558
     16 F1          5.0065    0.6365   -2.1063 F         1 <0>        -0.1666
     17 F2          5.8610    0.9654   -0.0132 F         1 <0>        -0.1679
     18 F3          4.5005   -0.8235   -0.4235 F         1 <0>        -0.1636
     19 C11         1.3610   -0.3029   -0.6682 C.3       1 <0>        -0.0490
     20 C12         0.0021   -0.0041    0.0020 C.3       1 <0>        -0.1127
     21 C13        -0.0189    1.5402    0.0105 C.3       1 <0>        -0.0468
     22 H2          2.7900    8.4275    0.0538 H         1 <0>         0.0541
     23 H3          3.1462    8.8228   -1.6448 H         1 <0>         0.0564
     24 H4          2.6281   10.1037   -0.5227 H         1 <0>         0.0590
     25 H5          0.7652    9.4134   -2.0065 H         1 <0>         0.0814
     26 H6          0.4091    9.0182   -0.3079 H         1 <0>         0.0696
     27 H7         -1.2537    7.3269   -1.2323 H         1 <0>         0.0584
     28 H8         -0.7479    7.6966   -2.8984 H         1 <0>         0.0687
     29 H9         -0.6717    6.0235   -2.2957 H         1 <0>         0.0600
     30 H10         1.0243    6.8375    0.5253 H         1 <0>         0.4019
     31 H11         0.9132    4.2511    1.2742 H         1 <0>         0.1298
     32 H12         2.6089    4.7923    1.2793 H         1 <0>         0.1314
     33 H13         1.8120   -1.1930   -0.2296 H         1 <0>         0.0800
     34 H14         1.2326   -0.4343   -1.7426 H         1 <0>         0.0813
     35 H15        -0.0265   -0.3994    1.0174 H         1 <0>         0.0803
     36 H16        -0.8212   -0.4013   -0.5917 H         1 <0>         0.0884
     37 H17        -0.5261    1.9170   -0.8776 H         1 <0>         0.0936
     38 H18        -0.5090    1.9074    0.9122 H         1 <0>         0.0824
@<TRIPOS>BOND
     1    1    2 1
     2    1   22 1
     3    1   23 1
     4    1   24 1
     5    2    3 1
     6    2   25 1
     7    2   26 1
     8    3    4 1
     9    3    5 1
    10    3    6 1
    11    5   27 1
    12    5   28 1
    13    5   29 1
    14    6    7 am
    15    6   30 1
    16    7    8 2
    17    7    9 1
    18    9   10 1
    19    9   31 1
    20    9   32 1
    21   10   14 1
    22   10   11 1
    23   11   21 1
    24   11   12 2
    25   12   13 1
    26   12   19 1
    27   13   14 2
    28   13   15 1
    29   15   16 1
    30   15   17 1
    31   15   18 1
    32   19   20 1
    33   19   33 1
    34   19   34 1
    35   20   21 1
    36   20   35 1
    37   20   36 1
    38   21   37 1
    39   21   38 1
@<TRIPOS>MOLECULE
ZINC36995750
   39    41     0     0     0
SMALL
USER_CHARGES

@<TRIPOS>ATOM
      1 C1         -0.0187    1.5258    0.0104 C.3       1 <0>        -0.1611
      2 C2          0.0021   -0.0041    0.0020 C.3       1 <0>         0.1898
      3 H1          0.5293   -0.3651    0.8851 H         1 <0>         0.0914
      4 C3         -1.4117   -0.5257    0.0127 C.ar      1 <0>        -0.0455
      5 C4         -2.1584   -0.5763   -1.1545 C.ar      1 <0>        -0.1663
      6 C5         -3.4518   -1.0609   -1.1060 C.ar      1 <0>         0.1041
      7 N1         -3.9762   -1.4713    0.0322 N.ar      1 <0>        -0.4840
      8 C6         -3.2957   -1.4376    1.1612 C.ar      1 <0>         0.1037
      9 C7         -1.9948   -0.9717    1.1889 C.ar      1 <0>        -0.1636
     10 N2          0.6878   -0.4765   -1.2033 N.pl3     1 <0>        -0.7279
     11 C8          2.0798   -0.5910   -1.2154 C.ar      1 <0>         0.2561
     12 C9          2.8152   -0.2627   -0.0833 C.ar      1 <0>        -0.2047
     13 C10         4.1911   -0.3775   -0.0984 C.ar      1 <0>        -0.0582
     14 C11         4.8374   -0.8182   -1.2391 C.ar      1 <0>        -0.1840
     15 C12         4.1086   -1.1453   -2.3676 C.ar      1 <0>        -0.0505
     16 C13         2.7315   -1.0387   -2.3572 C.ar      1 <0>        -0.1931
     17 C14         1.9375   -1.4019   -3.5855 C.3       1 <0>         0.1827
     18 N3          1.6810   -0.1951   -4.3757 N.pl3     1 <0>        -0.3694
     19 C15         1.9859   -0.0195   -5.6784 C.2       1 <0>         0.0513
     20 C16         1.5883    1.2249   -6.0310 C.2       1 <0>        -0.2736
     21 C17         1.0210    1.8306   -4.9051 C.2       1 <0>         0.0405
     22 N4          1.0705    0.9780   -3.9138 N.2       1 <0>        -0.2852
     23 H2          1.0039    1.9031    0.0027 H         1 <0>         0.0675
     24 H3         -0.5459    1.8868   -0.8726 H         1 <0>         0.0645
     25 H4         -0.5289    1.8773    0.9072 H         1 <0>         0.0642
     26 H5         -1.7347   -0.2410   -2.0896 H         1 <0>         0.1322
     27 H6         -4.0400   -1.1036   -2.0108 H         1 <0>         0.1568
     28 H7         -3.7588   -1.7820    2.0741 H         1 <0>         0.1588
     29 H8         -1.4409   -0.9512    2.1159 H         1 <0>         0.1374
     30 H9          0.1751   -0.7099   -1.9930 H         1 <0>         0.4005
     31 H10         2.3112    0.0822    0.8075 H         1 <0>         0.1228
     32 H11         4.7634   -0.1224    0.7813 H         1 <0>         0.1220
     33 H12         5.9137   -0.9067   -1.2484 H         1 <0>         0.1199
     34 H13         4.6164   -1.4885   -3.2569 H         1 <0>         0.1194
     35 H14         2.5022   -2.1157   -4.1853 H         1 <0>         0.1048
     36 H15         0.9893   -1.8486   -3.2863 H         1 <0>         0.0814
     37 H16         2.4623   -0.7426   -6.3240 H         1 <0>         0.1711
     38 H17         1.6914    1.6718   -7.0088 H         1 <0>         0.1451
     39 H18         0.6086    2.8279   -4.8626 H         1 <0>         0.1791
@<TRIPOS>BOND
     1    1    2 1
     2    1   23 1
     3    1   24 1
     4    1   25 1
     5    2    3 1
     6    2    4 1
     7    2   10 1
     8    4    9 ar
     9    4    5 ar
    10    5    6 ar
    11    5   26 1
    12    6    7 ar
    13    6   27 1
    14    7    8 ar
    15    8    9 ar
    16    8   28 1
    17    9   29 1
    18   10   11 1
    19   10   30 1
    20   11   16 ar
    21   11   12 ar
    22   12   13 ar
    23   12   31 1
    24   13   14 ar
    25   13   32 1
    26   14   15 ar
    27   14   33 1
    28   15   16 ar
    29   15   34 1
    30   16   17 1
    31   17   18 1
    32   17   35 1
    33   17   36 1
    34   18   22 1
    35   18   19 1
    36   19   20 2
    37   19   37 1
    38   20   21 1
    39   20   38 1
    40   21   22 2
    41   21   39 1
@<TRIPOS>MOLECULE
ZINC41459371
   42    43     0     0     0
SMALL
USER_CHARGES

@<TRIPOS>ATOM
      1 C1         -0.4125    0.2745   -0.2799 C.3       1 <0>        -0.1534
      2 C2         -1.0442   -1.0402    0.1818 C.3       1 <0>        -0.0937
      3 C3         -0.9439   -2.0758   -0.9399 C.3       1 <0>        -0.1484
      4 C4         -0.3047   -1.5547    1.4185 C.3       1 <0>        -0.1272
      5 C5         -0.5094   -0.5780    2.5782 C.3       1 <0>         0.1168
      6 N1          0.1987   -1.0707    3.7623 N.am      1 <0>        -0.7260
      7 C6          0.1593   -0.3682    4.9119 C.2       1 <0>         0.5045
      8 O1         -0.4624    0.6717    4.9661 O.2       1 <0>        -0.5142
      9 C7          0.8877   -0.8750    6.1300 C.3       1 <0>         0.1150
     10 H1          0.9196   -1.9645    6.1236 H         1 <0>         0.1056
     11 C8          2.3202   -0.2985    6.1745 C.3       1 <0>        -0.1187
     12 C9          2.5335   -0.1009    7.6932 C.3       1 <0>        -0.1501
     13 C10         1.1338    0.0442    8.2486 C.2       1 <0>         0.5233
     14 O2          0.8639    0.4892    9.3442 O.2       1 <0>        -0.5072
     15 N2          0.2316   -0.3931    7.3511 N.am      1 <0>        -0.5593
     16 C11        -1.1539   -0.3882    7.5544 C.ar      1 <0>         0.1371
     17 C12        -1.8341    0.8160    7.6778 C.ar      1 <0>        -0.0567
     18 C13        -3.2006    0.8187    7.8783 C.ar      1 <0>        -0.1429
     19 C14        -3.8922   -0.3784    7.9566 C.ar      1 <0>         0.1021
     20 C15        -3.2157   -1.5803    7.8337 C.ar      1 <0>        -0.1455
     21 C16        -1.8502   -1.5873    7.6270 C.ar      1 <0>        -0.0946
     22 F1         -5.2288   -0.3736    8.1536 F         1 <0>        -0.1365
     23 H2          0.6358    0.1069   -0.5270 H         1 <0>         0.0557
     24 H3         -0.9394    0.6411   -1.1609 H         1 <0>         0.0569
     25 H4         -0.4840    1.0123    0.5193 H         1 <0>         0.0574
     26 H5         -2.0925   -0.8726    0.4289 H         1 <0>         0.0733
     27 H6          0.1044   -2.2435   -1.1871 H         1 <0>         0.0555
     28 H7         -1.3940   -3.0125   -0.6110 H         1 <0>         0.0551
     29 H8         -1.4708   -1.7093   -1.8210 H         1 <0>         0.0575
     30 H9         -0.6959   -2.5339    1.6946 H         1 <0>         0.0702
     31 H10         0.7594   -1.6379    1.1971 H         1 <0>         0.0711
     32 H11        -0.1181    0.4011    2.3021 H         1 <0>         0.0725
     33 H12        -1.5735   -0.4949    2.7996 H         1 <0>         0.0683
     34 H13         0.6959   -1.9024    3.7190 H         1 <0>         0.4018
     35 H14         3.0397   -1.0098    5.7688 H         1 <0>         0.1053
     36 H15         2.3743    0.6532    5.6459 H         1 <0>         0.0918
     37 H16         3.0271   -0.9713    8.1255 H         1 <0>         0.1143
     38 H17         3.1146    0.8016    7.8826 H         1 <0>         0.1126
     39 H18        -1.2949    1.7499    7.6175 H         1 <0>         0.1344
     40 H19        -3.7300    1.7551    7.9743 H         1 <0>         0.1413
     41 H20        -3.7569   -2.5129    7.8955 H         1 <0>         0.1411
     42 H21        -1.3235   -2.5248    7.5268 H         1 <0>         0.1338
@<TRIPOS>BOND
     1    1    2 1
     2    1   23 1
     3    1   24 1
     4    1   25 1
     5    2    3 1
     6    2    4 1
     7    2   26 1
     8    3   27 1
     9    3   28 1
    10    3   29 1
    11    4    5 1
    12    4   30 1
    13    4   31 1
    14    5    6 1
    15    5   32 1
    16    5   33 1
    17    6    7 am
    18    6   34 1
    19    7    8 2
    20    7    9 1
    21    9   10 1
    22    9   15 1
    23    9   11 1
    24   11   12 1
    25   11   35 1
    26   11   36 1
    27   12   13 1
    28   12   37 1
    29   12   38 1
    30   13   14 2
    31   13   15 am
    32   15   16 1
    33   16   21 ar
    34   16   17 ar
    35   17   18 ar
    36   17   39 1
    37   18   19 ar
    38   18   40 1
    39   19   20 ar
    40   19   22 1
    41   20   21 ar
    42   20   41 1
    43   21   42 1
@<TRIPOS>MOLECULE
ZINC49275076
   35    36     0     0     0
SMALL
USER_CHARGES

@<TRIPOS>ATOM
      1 C1         -0.0187    1.5258    0.0104 C.3       1 <0>        -0.1448
      2 C2          0.0021   -0.0041    0.0020 C.3       1 <0>        -0.1234
      3 H1         -1.0205   -0.3814    0.0098 H         1 <0>         0.1252
      4 C3          0.7309   -0.5033    1.2229 C.2       1 <0>         0.5380
      5 O1          1.9109   -0.7754    1.1557 O.2       1 <0>        -0.5194
      6 N1          0.0715   -0.6474    2.3895 N.am      1 <0>        -0.7188
      7 C4          0.7801   -1.1327    3.5763 C.3       1 <0>         0.1236
      8 C5         -0.1910   -1.2038    4.7565 C.3       1 <0>        -0.1007
      9 H2         -1.0521   -1.8150    4.4861 H         1 <0>         0.0816
     10 C6          0.5169   -1.8187    5.9705 C.3       1 <0>        -0.1125
     11 C7         -0.5198   -2.0417    7.0737 C.3       1 <0>        -0.0924
     12 C8         -1.3267   -0.7941    7.2845 C.2       1 <0>        -0.1544
     13 C9         -1.3880    0.1820    6.4365 C.2       1 <0>        -0.1586
     14 C10        -0.6567    0.2064    5.1252 C.3       1 <0>        -0.0870
     15 S1          0.8511   -0.5891   -1.4904 S.3       1 <0>         0.1337
     16 C11        -0.1893   -0.0568   -2.8091 C.2       1 <0>         0.0203
     17 N2         -1.3301    0.6204   -2.7767 N.2       1 <0>        -0.2925
     18 N3         -1.9534    0.9227   -3.8307 N.2       1 <0>        -0.2712
     19 C12        -1.5146    0.5873   -5.0268 C.2       1 <0>         0.0496
     20 S2         -0.0067   -0.2674   -4.5779 S.3       1 <0>         0.0271
     21 H3          1.0039    1.9031    0.0027 H         1 <0>         0.0758
     22 H4         -0.5459    1.8868   -0.8726 H         1 <0>         0.0850
     23 H5         -0.5289    1.8773    0.9072 H         1 <0>         0.0762
     24 H6         -0.8722   -0.4298    2.4432 H         1 <0>         0.4043
     25 H7          1.1839   -2.1254    3.3778 H         1 <0>         0.0743
     26 H8          1.5952   -0.4503    3.8172 H         1 <0>         0.0738
     27 H9          0.9641   -2.7722    5.6897 H         1 <0>         0.0713
     28 H10         1.2906   -1.1385    6.3268 H         1 <0>         0.0697
     29 H11        -1.1836   -2.8570    6.7862 H         1 <0>         0.0748
     30 H12        -0.0101   -2.3032    8.0010 H         1 <0>         0.0750
     31 H13        -1.8918   -0.7053    8.2006 H         1 <0>         0.1033
     32 H14        -2.0068    1.0313    6.6858 H         1 <0>         0.1036
     33 H15         0.2096    0.8624    5.2099 H         1 <0>         0.0770
     34 H16        -1.3183    0.5839    4.3454 H         1 <0>         0.0706
     35 H17        -1.9406    0.7778   -6.0008 H         1 <0>         0.2421
@<TRIPOS>BOND
     1    1    2 1
     2    1   21 1
     3    1   22 1
     4    1   23 1
     5    2    3 1
     6    2    4 1
     7    2   15 1
     8    4    5 2
     9    4    6 am
    10    6    7 1
    11    6   24 1
    12    7    8 1
    13    7   25 1
    14    7   26 1
    15    8    9 1
    16    8   14 1
    17    8   10 1
    18   10   11 1
    19   10   27 1
    20   10   28 1
    21   11   12 1
    22   11   29 1
    23   11   30 1
    24   12   13 2
    25   12   31 1
    26   13   14 1
    27   13   32 1
    28   14   33 1
    29   14   34 1
    30   15   16 1
    31   16   20 1
    32   16   17 2
    33   17   18 1
    34   18   19 2
    35   19   20 1
    36   19   35 1
@<TRIPOS>MOLECULE
ZINC62219905
   38    39     0     0     0
SMALL
USER_CHARGES

@<TRIPOS>ATOM
      1 C1          1.1192    1.4202    0.1882 C.3       1 <0>        -0.1608
      2 C2          0.7916   -0.0715    0.0950 C.3       1 <0>         0.1121
      3 N1          1.3662   -0.6217   -1.1351 N.pl3     1 <0>        -1.1283
      4 S1          1.4975   -2.2614   -1.3264 S.o2      1 <0>         2.7987
      5 O1          2.0594   -2.4764   -2.6138 O.2       1 <0>        -0.9706
      6 O2          2.0982   -2.7619   -0.1398 O.2       1 <0>        -0.9710
      7 N2         -0.0404   -2.8737   -1.3729 N.pl3     1 <0>        -1.0156
      8 C3         -0.8418   -3.2736   -0.2019 C.3       1 <0>         0.1193
      9 C4         -2.3135   -3.1689   -0.6740 C.3       1 <0>        -0.1316
     10 C5         -2.2048   -3.6567   -2.1429 C.3       1 <0>        -0.1235
     11 C6         -0.8352   -3.1025   -2.5884 C.3       1 <0>         0.1610
     12 H1         -0.9700   -2.1636   -3.1254 H         1 <0>         0.0778
     13 C7         -0.1314   -4.1223   -3.4860 C.3       1 <0>        -0.1167
     14 C8         -0.8864   -4.2551   -4.7834 C.ar      1 <0>        -0.0856
     15 C9         -1.7993   -5.2799   -4.9495 C.ar      1 <0>        -0.0861
     16 C10        -2.4926   -5.4024   -6.1387 C.ar      1 <0>        -0.1515
     17 C11        -2.2726   -4.4983   -7.1640 C.ar      1 <0>         0.0940
     18 C12        -1.3580   -3.4724   -6.9966 C.ar      1 <0>        -0.1507
     19 C13        -0.6697   -3.3487   -5.8046 C.ar      1 <0>        -0.0859
     20 F1         -2.9495   -4.6174   -8.3271 F         1 <0>        -0.1404
     21 H2          2.2008    1.5545    0.2006 H         1 <0>         0.0645
     22 H3          0.6985    1.9390   -0.6732 H         1 <0>         0.0626
     23 H4          0.6917    1.8296    1.1034 H         1 <0>         0.0732
     24 H5          1.2123   -0.5903    0.9563 H         1 <0>         0.0777
     25 H6         -0.2900   -0.2058    0.0826 H         1 <0>         0.0639
     26 H7          1.6697   -0.0257   -1.8376 H         1 <0>         0.4172
     27 H8         -0.6077   -4.2985    0.0859 H         1 <0>         0.0738
     28 H9         -0.6614   -2.5941    0.6312 H         1 <0>         0.0741
     29 H10        -2.9585   -3.8261   -0.0908 H         1 <0>         0.0849
     30 H11        -2.6657   -2.1384   -0.6296 H         1 <0>         0.0759
     31 H12        -2.2180   -4.7456   -2.1897 H         1 <0>         0.0801
     32 H13        -3.0053   -3.2337   -2.7499 H         1 <0>         0.0819
     33 H14         0.8853   -3.7862   -3.6900 H         1 <0>         0.1071
     34 H15        -0.1005   -5.0888   -2.9830 H         1 <0>         0.0804
     35 H16        -1.9705   -5.9851   -4.1497 H         1 <0>         0.1322
     36 H17        -3.2056   -6.2033   -6.2683 H         1 <0>         0.1354
     37 H18        -1.1853   -2.7668   -7.7958 H         1 <0>         0.1357
     38 H19         0.0405   -2.5459   -5.6721 H         1 <0>         0.1344
@<TRIPOS>BOND
     1    1    2 1
     2    1   21 1
     3    1   22 1
     4    1   23 1
     5    2    3 1
     6    2   24 1
     7    2   25 1
     8    3    4 1
     9    3   26 1
    10    4    5 2
    11    4    6 2
    12    4    7 1
    13    7   11 1
    14    7    8 1
    15    8    9 1
    16    8   27 1
    17    8   28 1
    18    9   10 1
    19    9   29 1
    20    9   30 1
    21   10   11 1
    22   10   31 1
    23   10   32 1
    24   11   12 1
    25   11   13 1
    26   13   14 1
    27   13   33 1
    28   13   34 1
    29   14   19 ar
    30   14   15 ar
    31   15   16 ar
    32   15   35 1
    33   16   17 ar
    34   16   36 1
    35   17   18 ar
    36   17   20 1
    37   18   19 ar
    38   18   37 1
    39   19   38 1
@<TRIPOS>MOLECULE
ZINC01056007
   39    41     0     0     0
SMALL
USER_CHARGES
3-methyl-N-(1-tetrahydrofuran-2-ylethyl)benzofuran-2-carboxamide
@<TRIPOS>ATOM
      1 C1          1.6858   -7.1427    0.7815 C.3       1 <0>        -0.0956
      2 C2          0.5753   -6.5279   -0.0308 C.2       1 <0>        -0.0718
      3 C3         -0.4422   -7.2358   -0.8070 C.ar      1 <0>        -0.1447
      4 C4         -0.7201   -8.5834   -1.0485 C.ar      1 <0>        -0.0569
      5 C5         -1.7767   -8.9248   -1.8444 C.ar      1 <0>        -0.1387
      6 C6         -2.5751   -7.9419   -2.4137 C.ar      1 <0>        -0.0796
      7 C7         -2.3178   -6.6072   -2.1879 C.ar      1 <0>        -0.1127
      8 C8         -1.2479   -6.2353   -1.3817 C.ar      1 <0>         0.0742
      9 O1         -0.7634   -5.0432   -0.9830 O.3       1 <0>        -0.1841
     10 C9          0.3164   -5.2042   -0.1899 C.2       1 <0>        -0.0434
     11 C10         1.0916   -4.1121    0.4155 C.2       1 <0>         0.6035
     12 O2          2.0489   -4.3648    1.1224 O.2       1 <0>        -0.5134
     13 N1          0.7418   -2.8306    0.1876 N.am      1 <0>        -0.7103
     14 C11         1.5144   -1.7420    0.7911 C.3       1 <0>         0.1457
     15 H1          2.5667   -2.0230    0.8327 H         1 <0>         0.1030
     16 C12         1.0009   -1.4765    2.2077 C.3       1 <0>        -0.1640
     17 C13         1.3576   -0.4761   -0.0538 C.3       1 <0>         0.0711
     18 H2          1.6476   -0.6725   -1.0860 H         1 <0>         0.0793
     19 C14         2.2112    0.6741    0.5373 C.3       1 <0>        -0.1516
     20 C15         1.4478    1.9147   -0.0015 C.3       1 <0>        -0.1557
     21 C16        -0.0173    1.4282    0.0099 C.3       1 <0>         0.0511
     22 O3          0.0021   -0.0041    0.0020 O.3       1 <0>        -0.3766
     23 H3          1.3395   -7.3117    1.8011 H         1 <0>         0.0790
     24 H4          1.9792   -8.0929    0.3352 H         1 <0>         0.0702
     25 H5          2.5420   -6.4682    0.7956 H         1 <0>         0.0919
     26 H6         -0.1026   -9.3520   -0.6076 H         1 <0>         0.1310
     27 H7         -1.9925   -9.9663   -2.0318 H         1 <0>         0.1334
     28 H8         -3.4070   -8.2267   -3.0408 H         1 <0>         0.1389
     29 H9         -2.9457   -5.8516   -2.6364 H         1 <0>         0.1361
     30 H10        -0.0216   -2.6291   -0.3760 H         1 <0>         0.4114
     31 H11         1.5758   -0.6665    2.6567 H         1 <0>         0.0687
     32 H12        -0.0514   -1.1955    2.1660 H         1 <0>         0.0680
     33 H13         1.1126   -2.3784    2.8096 H         1 <0>         0.0625
     34 H14         2.2022    0.6500    1.6270 H         1 <0>         0.0883
     35 H15         3.2311    0.6435    0.1540 H         1 <0>         0.0877
     36 H16         1.7681    2.1574   -1.0147 H         1 <0>         0.0781
     37 H17         1.5780    2.7690    0.6628 H         1 <0>         0.0851
     38 H18        -0.5359    1.7958   -0.8755 H         1 <0>         0.0698
     39 H19        -0.5189    1.7862    0.9090 H         1 <0>         0.0711
@<TRIPOS>BOND
     1    1    2 1
     2    1   23 1
     3    1   24 1
     4    1   25 1
     5    2   10 2
     6    2    3 1
     7    3    8 ar
     8    3    4 ar
     9    4    5 ar
    10    4   26 1
    11    5    6 ar
    12    5   27 1
    13    6    7 ar
    14    6   28 1
    15    7    8 ar
    16    7   29 1
    17    8    9 1
    18    9   10 1
    19   10   11 1
    20   11   12 2
    21   11   13 am
    22   13   14 1
    23   13   30 1
    24   14   15 1
    25   14   16 1
    26   14   17 1
    27   16   31 1
    28   16   32 1
    29   16   33 1
    30   17   18 1
    31   17   22 1
    32   17   19 1
    33   19   20 1
    34   19   34 1
    35   19   35 1
    36   20   21 1
    37   20   36 1
    38   20   37 1
    39   21   22 1
    40   21   38 1
    41   21   39 1
@<TRIPOS>MOLECULE
ZINC35047976
   32    34     0     0     0
SMALL
USER_CHARGES

@<TRIPOS>ATOM
      1 C1         -0.0184    1.5028    0.0103 C.3       1 <0>        -0.1179
      2 C2          0.0021   -0.0041    0.0020 C.2       1 <0>         0.0286
      3 C3          0.0057   -0.6827   -1.1816 C.2       1 <0>        -0.1806
      4 C4          0.0248   -2.0874   -1.1721 C.2       1 <0>         0.3272
      5 N1          0.0331   -2.9983   -2.1401 N.2       1 <0>        -0.5559
      6 C5          0.0523   -4.2133   -1.6090 C.2       1 <0>         0.2471
      7 N2          0.0569   -4.1230   -0.3006 N.2       1 <0>        -0.3579
      8 N3          0.0395   -2.7582    0.0190 N.pl3     1 <0>        -0.3250
      9 C6          0.0354   -2.0758    1.1988 C.2       1 <0>         0.4524
     10 C7          0.0231   -0.7124    1.2069 C.2       1 <0>        -0.2667
     11 N4          0.0504   -2.7705    2.3950 N.pl3     1 <0>        -0.7225
     12 C8          0.0460   -2.0412    3.6656 C.3       1 <0>         0.2416
     13 H1          0.6223   -1.1222    3.5590 H         1 <0>         0.1101
     14 C9         -1.3941   -1.6982    4.0518 C.3       1 <0>        -0.1695
     15 C10         0.6633   -2.8996    4.7395 C.2       1 <0>        -0.1703
     16 C11         1.4985   -2.5400    5.7447 C.2       1 <0>        -0.1347
     17 C12         1.9445   -3.5083    6.6245 C.2       1 <0>        -0.1597
     18 C13         1.5335   -4.7890    6.4560 C.2       1 <0>        -0.1618
     19 S1          0.4781   -4.6525    5.0226 S.3       1 <0>         0.0484
     20 H2          1.0042    1.8801    0.0026 H         1 <0>         0.0831
     21 H3         -0.5455    1.8639   -0.8728 H         1 <0>         0.0774
     22 H4         -0.5286    1.8543    0.9071 H         1 <0>         0.0755
     23 H5         -0.0063   -0.1446   -2.1179 H         1 <0>         0.1532
     24 H6          0.0622   -5.1368   -2.1688 H         1 <0>         0.2250
     25 H7          0.0252   -0.1789    2.1459 H         1 <0>         0.1561
     26 H8          0.0638   -3.7404    2.3925 H         1 <0>         0.4130
     27 H9         -1.8406   -1.0774    3.2751 H         1 <0>         0.0738
     28 H10        -1.9704   -2.6173    4.1584 H         1 <0>         0.0659
     29 H11        -1.3974   -1.1557    4.9972 H         1 <0>         0.0786
     30 H12         1.8110   -1.5122    5.8564 H         1 <0>         0.1375
     31 H13         2.6107   -3.2485    7.4338 H         1 <0>         0.1388
     32 H14         1.7779   -5.6641    7.0398 H         1 <0>         0.1893
@<TRIPOS>BOND
     1    1    2 1
     2    1   20 1
     3    1   21 1
     4    1   22 1
     5    2   10 1
     6    2    3 2
     7    3    4 1
     8    3   23 1
     9    4    8 1
    10    4    5 2
    11    5    6 1
    12    6    7 2
    13    6   24 1
    14    7    8 1
    15    8    9 1
    16    9   10 2
    17    9   11 1
    18   10   25 1
    19   11   12 1
    20   11   26 1
    21   12   13 1
    22   12   14 1
    23   12   15 1
    24   14   27 1
    25   14   28 1
    26   14   29 1
    27   15   19 1
    28   15   16 2
    29   16   17 1
    30   16   30 1
    31   17   18 2
    32   17   31 1
    33   18   19 1
    34   18   32 1
@<TRIPOS>MOLECULE
ZINC04737776
   29    30     0     0     0
SMALL
USER_CHARGES

@<TRIPOS>ATOM
      1 C1         -0.0178    1.4608    0.0101 C.3       1 <0>         0.0676
      2 N1          0.0021   -0.0041    0.0020 N.am      1 <0>        -0.5243
      3 C2          0.0076   -0.7649   -1.1251 C.2       1 <0>         0.2023
      4 C3          0.0270   -2.0893   -0.7873 C.2       1 <0>        -0.2205
      5 C4          0.0339   -2.1301    0.6997 C.2       1 <0>        -0.3019
      6 C5          0.0527   -3.2363    1.4998 C.2       1 <0>         0.2893
      7 N2          0.0565   -3.0968    2.8546 N.pl3     1 <0>        -0.6196
      8 C6          0.0758   -4.2289    3.6735 C.ar      1 <0>         0.1419
      9 C7          0.0968   -5.4974    3.1073 C.ar      1 <0>        -0.1618
     10 C8          0.1158   -6.6140    3.9196 C.ar      1 <0>        -0.0819
     11 C9          0.1139   -6.4707    5.2950 C.ar      1 <0>        -0.1400
     12 C10         0.0925   -5.2095    5.8619 C.ar      1 <0>        -0.0841
     13 C11         0.0797   -4.0884    5.0556 C.ar      1 <0>        -0.1506
     14 C12         0.0230   -0.7680    1.1076 C.2       1 <0>         0.5534
     15 O1          0.0289   -0.3643    2.2575 O.2       1 <0>        -0.5317
     16 C13         0.0379   -3.1937   -1.6700 C.2       1 <0>         0.4052
     17 O2          0.0547   -4.3246   -1.2276 O.2       1 <0>        -0.4744
     18 Cl1        -0.0077   -0.1475   -2.7476 Cl        1 <0>         0.0072
     19 H1          1.0048    1.8381    0.0023 H         1 <0>         0.0766
     20 H2         -0.5450    1.8219   -0.8730 H         1 <0>         0.0860
     21 H3         -0.5280    1.8123    0.9069 H         1 <0>         0.0932
     22 H4          0.0646   -4.2219    1.0584 H         1 <0>         0.1824
     23 H5          0.0459   -2.2116    3.2511 H         1 <0>         0.4279
     24 H6          0.0980   -5.6100    2.0332 H         1 <0>         0.1329
     25 H7          0.1318   -7.6005    3.4801 H         1 <0>         0.1322
     26 H8          0.1287   -7.3457    5.9279 H         1 <0>         0.1282
     27 H9          0.0903   -5.1011    6.9365 H         1 <0>         0.1314
     28 H10         0.0679   -3.1037    5.4990 H         1 <0>         0.1299
     29 H11         0.0312   -3.0317   -2.7378 H         1 <0>         0.1033
@<TRIPOS>BOND
     1    1    2 1
     2    1   19 1
     3    1   20 1
     4    1   21 1
     5    2   14 am
     6    2    3 1
     7    3    4 2
     8    3   18 1
     9    4    5 1
    10    4   16 1
    11    5    6 2
    12    5   14 1
    13    6    7 1
    14    6   22 1
    15    7    8 1
    16    7   23 1
    17    8   13 ar
    18    8    9 ar
    19    9   10 ar
    20    9   24 1
    21   10   11 ar
    22   10   25 1
    23   11   12 ar
    24   11   26 1
    25   12   13 ar
    26   12   27 1
    27   13   28 1
    28   14   15 2
    29   16   17 2
    30   16   29 1
@<TRIPOS>MOLECULE
ZINC46945170
   38    39     0     0     0
SMALL
USER_CHARGES

@<TRIPOS>ATOM
      1 C1         -0.0363    1.5240    0.0263 C.3       1 <0>        -0.1495
      2 C2         -0.0157   -0.0059    0.0186 C.3       1 <0>        -0.0444
      3 C3          0.7179   -0.5045    1.2368 C.2       1 <0>        -0.1235
      4 C4          0.2280   -0.8071    2.4639 C.2       1 <0>        -0.1688
      5 C5          1.0974   -1.2536    3.4414 C.2       1 <0>        -0.1223
      6 C6          2.4142   -1.3758    3.1439 C.2       1 <0>        -0.1816
      7 S1          2.4566   -0.8576    1.4360 S.3       1 <0>         0.0508
      8 C7          3.5475   -1.8352    4.0246 C.3       1 <0>         0.2265
      9 N1          3.7021   -3.2870    3.9039 N.am      1 <0>        -0.7437
     10 C8          4.6606   -3.9233    4.6059 C.2       1 <0>         0.7116
     11 O1          5.4544   -3.2839    5.2687 O.2       1 <0>        -0.5836
     12 N2          4.7393   -5.2684    4.5731 N.am      1 <0>        -0.6332
     13 C9          5.6983   -5.9921    5.4228 C.3       1 <0>         0.0940
     14 C10         6.4846   -6.9687    4.5409 C.3       1 <0>         0.0478
     15 O2          5.5674   -7.7710    3.7933 O.3       1 <0>        -0.3749
     16 C11         4.7438   -7.0302    2.8896 C.3       1 <0>         0.0741
     17 H1          5.3738   -6.4706    2.1982 H         1 <0>         0.0645
     18 C12         3.8644   -6.0571    3.6911 C.3       1 <0>         0.0821
     19 C13         3.8528   -7.9939    2.1033 C.3       1 <0>        -0.1464
     20 H2          0.9863    1.9011    0.0143 H         1 <0>         0.0585
     21 H3         -0.5669    1.8847   -0.8548 H         1 <0>         0.0659
     22 H4         -0.5428    1.8760    0.9249 H         1 <0>         0.0596
     23 H5         -1.0383   -0.3830    0.0306 H         1 <0>         0.0884
     24 H6          0.4908   -0.3579   -0.8800 H         1 <0>         0.0805
     25 H7         -0.8258   -0.7005    2.6749 H         1 <0>         0.1348
     26 H8          0.7331   -1.5012    4.4274 H         1 <0>         0.1349
     27 H9          4.4702   -1.3446    3.7149 H         1 <0>         0.0835
     28 H10         3.3294   -1.5780    5.0611 H         1 <0>         0.0905
     29 H11         3.1146   -3.7904    3.3187 H         1 <0>         0.3976
     30 H12         6.3839   -5.2838    5.8879 H         1 <0>         0.1053
     31 H13         5.1614   -6.5445    6.1940 H         1 <0>         0.0760
     32 H14         7.1210   -6.4088    3.8555 H         1 <0>         0.0570
     33 H15         7.1016   -7.6109    5.1694 H         1 <0>         0.1100
     34 H16         3.1460   -6.6160    4.2909 H         1 <0>         0.0810
     35 H17         3.3350   -5.3919    3.0089 H         1 <0>         0.0846
     36 H18         3.2218   -8.5519    2.7951 H         1 <0>         0.0678
     37 H19         3.2252   -7.4285    1.4145 H         1 <0>         0.0744
     38 H20         4.4766   -8.6880    1.5401 H         1 <0>         0.0704
@<TRIPOS>BOND
     1    1    2 1
     2    1   20 1
     3    1   21 1
     4    1   22 1
     5    2    3 1
     6    2   23 1
     7    2   24 1
     8    3    7 1
     9    3    4 2
    10    4    5 1
    11    4   25 1
    12    5    6 2
    13    5   26 1
    14    6    7 1
    15    6    8 1
    16    8    9 1
    17    8   27 1
    18    8   28 1
    19    9   10 am
    20    9   29 1
    21   10   11 2
    22   10   12 am
    23   12   18 1
    24   12   13 1
    25   13   14 1
    26   13   30 1
    27   13   31 1
    28   14   15 1
    29   14   32 1
    30   14   33 1
    31   15   16 1
    32   16   17 1
    33   16   18 1
    34   16   19 1
    35   18   34 1
    36   18   35 1
    37   19   36 1
    38   19   37 1
    39   19   38 1
@<TRIPOS>MOLECULE
ZINC55069848
   34    35     0     0     0
SMALL
USER_CHARGES

@<TRIPOS>ATOM
      1 C1          1.2831   -2.6002   -0.0525 C.3       1 <0>        -0.1742
      2 C2          0.6236   -2.0209   -1.3056 C.3       1 <0>        -0.1490
      3 C3          0.6012   -0.4940   -1.2106 C.3       1 <0>         0.0247
      4 H1          0.1159   -0.1949   -0.2815 H         1 <0>         0.1371
      5 C4         -0.1739    0.0796   -2.3985 C.3       1 <0>        -0.1848
      6 N1          1.9779    0.0182   -1.2309 N.4       1 <0>        -0.3802
      7 C5          2.5871   -0.2722   -2.5350 C.3       1 <0>        -0.0311
      8 C6          4.0575    0.1583   -2.5179 C.3       1 <0>         0.1159
      9 N2          4.1248    1.5723   -2.1177 N.pl3     1 <0>        -0.5905
     10 C7          3.4019    1.9846   -0.9046 C.3       1 <0>         0.1138
     11 C8          1.9624    1.4678   -0.9978 C.3       1 <0>        -0.0240
     12 C9          4.8512    2.4926   -2.8643 C.2       1 <0>         0.2820
     13 N3          5.5483    2.3087   -3.9683 N.2       1 <0>        -0.3519
     14 N4          6.1993    3.3707   -4.5521 N.2       1 <0>        -0.3499
     15 C10         6.1231    4.5685   -4.0044 C.2       1 <0>         0.3050
     16 S1          5.0835    4.2422   -2.5889 S.3       1 <0>        -0.1727
     17 S2          6.8479    6.0855   -4.5315 S.3       1 <0>        -0.6528
     18 H2          2.3304   -2.2997   -0.0211 H         1 <0>         0.0533
     19 H3          0.7709   -2.2257    0.8338 H         1 <0>         0.0704
     20 H4          1.2178   -3.6880   -0.0774 H         1 <0>         0.0823
     21 H5          1.1905   -2.3218   -2.1866 H         1 <0>         0.0886
     22 H6         -0.3971   -2.3950   -1.3850 H         1 <0>         0.1098
     23 H7          0.3114   -0.2195   -3.3275 H         1 <0>         0.0831
     24 H8         -1.1954   -0.3004   -2.3835 H         1 <0>         0.1028
     25 H9         -0.1899    1.1674   -2.3308 H         1 <0>         0.0818
     26 H10         2.5238   -1.3417   -2.7356 H         1 <0>         0.1409
     27 H11         2.0569    0.2758   -3.3139 H         1 <0>         0.1367
     28 H12         4.6094   -0.4515   -1.8026 H         1 <0>         0.0857
     29 H13         4.4858    0.0385   -3.5131 H         1 <0>         0.1336
     30 H14         3.8876    1.5592   -0.0264 H         1 <0>         0.0910
     31 H15         3.3967    3.0722   -0.8332 H         1 <0>         0.1258
     32 H16         1.4511    1.9632   -1.8232 H         1 <0>         0.1356
     33 H17         1.4388    1.6805   -0.0658 H         1 <0>         0.1416
     34 H18         2.5138   -0.4324   -0.5043 H         1 <0>         0.4195
@<TRIPOS>BOND
     1    1    2 1
     2    1   18 1
     3    1   19 1
     4    1   20 1
     5    2    3 1
     6    2   21 1
     7    2   22 1
     8    3    4 1
     9    3    5 1
    10    3    6 1
    11    5   23 1
    12    5   24 1
    13    5   25 1
    14    6   11 1
    15    6    7 1
    16    6   34 1
    17    7    8 1
    18    7   26 1
    19    7   27 1
    20    8    9 1
    21    8   28 1
    22    8   29 1
    23    9   10 1
    24    9   12 1
    25   10   11 1
    26   10   30 1
    27   10   31 1
    28   11   32 1
    29   11   33 1
    30   12   16 1
    31   12   13 2
    32   13   14 1
    33   14   15 2
    34   15   16 1
    35   15   17 1
@<TRIPOS>MOLECULE
ZINC01453117
   33    35     0     0     0
SMALL
USER_CHARGES
5-[(2,5-dichlorophenyl)methyl]-2-(2-pyridylimino)thiazolidin-4-one
@<TRIPOS>ATOM
      1 C1          5.4209   -3.3982    0.2416 C.ar      1 <0>        -0.0562
      2 C2          4.3369   -4.2681    0.2433 C.ar      1 <0>        -0.1823
      3 C3          3.0570   -3.7584    0.1520 C.ar      1 <0>         0.1227
      4 N1          2.8492   -2.4587    0.0684 N.ar      1 <0>        -0.5488
      5 C4          3.8576   -1.5923    0.0582 C.ar      1 <0>         0.3044
      6 C5          5.1789   -2.0415    0.1478 C.ar      1 <0>        -0.1392
      7 N2          3.6012   -0.2549   -0.0346 N.2       1 <0>        -0.4728
      8 C6          2.3609    0.1795   -0.0135 C.2       1 <0>         0.4113
      9 N3          1.1999   -0.5619   -0.0184 N.am      1 <0>        -0.6760
     10 C7          0.0022   -0.0024    0.0045 C.2       1 <0>         0.5230
     11 O1         -1.0164   -0.6600   -0.0008 O.2       1 <0>        -0.4769
     12 C8         -0.0174    1.5173    0.0373 C.3       1 <0>        -0.1016
     13 H1         -0.4876    1.8866    0.9488 H         1 <0>         0.1600
     14 S1          1.7849    1.8700    0.0285 S.3       1 <0>         0.0066
     15 C9         -0.7004    2.0899   -1.2063 C.3       1 <0>        -0.0590
     16 C10        -0.8077    3.5874   -1.0759 C.ar      1 <0>        -0.0750
     17 C11        -1.9684    4.1572   -0.5873 C.ar      1 <0>        -0.0879
     18 C12        -2.0648    5.5315   -0.4623 C.ar      1 <0>        -0.0311
     19 C13        -1.0038    6.3365   -0.8380 C.ar      1 <0>        -0.0932
     20 C14         0.1544    5.7672   -1.3318 C.ar      1 <0>        -0.0934
     21 C15         0.2533    4.3921   -1.4506 C.ar      1 <0>        -0.0328
     22 Cl1         1.7086    3.6768   -2.0705 Cl        1 <0>        -0.0232
     23 Cl2        -3.5196    6.2467    0.1586 Cl        1 <0>        -0.0545
     24 H2          6.4306   -3.7748    0.3125 H         1 <0>         0.1434
     25 H3          4.4945   -5.3341    0.3158 H         1 <0>         0.1406
     26 H4          2.2138   -4.4333    0.1535 H         1 <0>         0.1603
     27 H5          5.9982   -1.3379    0.1441 H         1 <0>         0.1462
     28 H6          1.2633   -1.5296   -0.0398 H         1 <0>         0.4305
     29 H7         -0.1119    1.8434   -2.0900 H         1 <0>         0.1013
     30 H8         -1.6979    1.6612   -1.3029 H         1 <0>         0.1133
     31 H9         -2.7982    3.5291   -0.2986 H         1 <0>         0.1472
     32 H10        -1.0808    7.4097   -0.7449 H         1 <0>         0.1457
     33 H11         0.9826    6.3955   -1.6247 H         1 <0>         0.1475
@<TRIPOS>BOND
     1    1    6 ar
     2    1    2 ar
     3    1   24 1
     4    2    3 ar
     5    2   25 1
     6    3    4 ar
     7    3   26 1
     8    4    5 ar
     9    5    6 ar
    10    5    7 1
    11    6   27 1
    12    7    8 2
    13    8   14 1
    14    8    9 1
    15    9   10 am
    16    9   28 1
    17   10   11 2
    18   10   12 1
    19   12   13 1
    20   12   14 1
    21   12   15 1
    22   15   16 1
    23   15   29 1
    24   15   30 1
    25   16   21 ar
    26   16   17 ar
    27   17   18 ar
    28   17   31 1
    29   18   19 ar
    30   18   23 1
    31   19   20 ar
    32   19   32 1
    33   20   21 ar
    34   20   33 1
    35   21   22 1
@<TRIPOS>MOLECULE
ZINC16101647
   26    27     0     0     0
SMALL
USER_CHARGES
6-chloro-N-(2,4-dichlorophenyl)pyridine-3-sulfonamide
@<TRIPOS>ATOM
      1 C1         -1.1402    2.0176   -0.3935 C.ar      1 <0>        -0.0697
      2 C2          0.0019    1.2564   -0.2352 C.ar      1 <0>        -0.1542
      3 C3          1.2432    1.8745   -0.1693 C.ar      1 <0>         0.1667
      4 C4          1.3327    3.2590   -0.2574 C.ar      1 <0>        -0.0467
      5 C5          0.1866    4.0154   -0.4104 C.ar      1 <0>        -0.0768
      6 C6         -1.0492    3.3955   -0.4762 C.ar      1 <0>        -0.0383
      7 Cl1        -2.4873    4.3487   -0.6690 Cl        1 <0>        -0.0477
      8 Cl2         2.8826    4.0366   -0.1749 Cl        1 <0>        -0.0440
      9 N1          2.4010    1.1061   -0.0149 N.pl3     1 <0>        -1.0485
     10 S1          2.5128   -0.3780   -0.7410 S.o2      1 <0>         2.7000
     11 O1          3.8360   -0.8431   -0.5129 O.2       1 <0>        -0.9329
     12 O2          1.3663   -1.1146   -0.3382 O.2       1 <0>        -0.9340
     13 C7          2.3617   -0.1210   -2.4776 C.ar      1 <0>        -0.7421
     14 C8          3.4878    0.1117   -3.2534 C.ar      1 <0>         0.0459
     15 C9          3.3219    0.3081   -4.6150 C.ar      1 <0>        -0.1739
     16 C10         2.0470    0.2656   -5.1519 C.ar      1 <0>         0.2293
     17 N2          0.9986    0.0416   -4.3826 N.ar      1 <0>        -0.4842
     18 C11         1.1209   -0.1546   -3.0840 C.ar      1 <0>         0.2265
     19 Cl3         1.8247    0.5093   -6.8562 Cl        1 <0>        -0.0051
     20 H1         -2.1056    1.5365   -0.4493 H         1 <0>         0.1529
     21 H2         -0.0705    0.1809   -0.1674 H         1 <0>         0.1804
     22 H3          0.2551    5.0910   -0.4790 H         1 <0>         0.1519
     23 H4          3.1389    1.4424    0.5175 H         1 <0>         0.4342
     24 H5          4.4707    0.1390   -2.8068 H         1 <0>         0.1660
     25 H6          4.1765    0.4922   -5.2492 H         1 <0>         0.1617
     26 H7          0.2401   -0.3397   -2.4870 H         1 <0>         0.1823
@<TRIPOS>BOND
     1    1    6 ar
     2    1    2 ar
     3    1   20 1
     4    2    3 ar
     5    2   21 1
     6    3    4 ar
     7    3    9 1
     8    4    5 ar
     9    4    8 1
    10    5    6 ar
    11    5   22 1
    12    6    7 1
    13    9   10 1
    14    9   23 1
    15   10   11 2
    16   10   12 2
    17   10   13 1
    18   13   18 ar
    19   13   14 ar
    20   14   15 ar
    21   14   24 1
    22   15   16 ar
    23   15   25 1
    24   16   17 ar
    25   16   19 1
    26   17   18 ar
    27   18   26 1
@<TRIPOS>MOLECULE
ZINC37072316
   34    36     0     0     0
SMALL
USER_CHARGES

@<TRIPOS>ATOM
      1 C1         -0.0187    1.5258    0.0104 C.3       1 <0>        -0.1677
      2 C2          0.0021   -0.0041    0.0020 C.3       1 <0>         0.1892
      3 H1          0.5123   -0.3556   -0.8948 H         1 <0>         0.0985
      4 C3         -1.4117   -0.5257    0.0127 C.ar      1 <0>        -0.0867
      5 C4         -2.1215   -0.5702    1.1983 C.ar      1 <0>        -0.1017
      6 C5         -3.4189   -1.0474    1.2131 C.ar      1 <0>        -0.0940
      7 C6         -4.0109   -1.4829    0.0387 C.ar      1 <0>         0.0367
      8 C7         -3.2959   -1.4381   -1.1556 C.ar      1 <0>         0.0379
      9 C8         -1.9980   -0.9532   -1.1639 C.ar      1 <0>        -0.0871
     10 O1         -4.0897   -1.9167   -2.1576 O.3       1 <0>        -0.3066
     11 C9         -5.1501   -2.6340   -1.4986 C.3       1 <0>         0.2127
     12 O2         -5.2528   -1.9895   -0.2151 O.3       1 <0>        -0.3070
     13 N1          0.7106   -0.4894    1.1889 N.pl3     1 <0>        -0.7240
     14 C10         2.0982   -0.6035    1.1732 C.ar      1 <0>         0.2775
     15 C11         2.8109   -0.2506    0.0312 C.ar      1 <0>        -0.1966
     16 C12         4.1828   -0.3621    0.0121 C.ar      1 <0>        -0.0022
     17 C13         4.8607   -0.8301    1.1418 C.ar      1 <0>        -0.0875
     18 C14         4.1423   -1.1834    2.2878 C.ar      1 <0>         0.0116
     19 C15         2.7700   -1.0648    2.3020 C.ar      1 <0>        -0.1776
     20 Br1         1.7972   -1.5355    3.8537 Br        1 <0>        -0.0395
     21 C16         6.2878   -0.9476    1.1249 C.1       1 <0>         0.2578
     22 N2          7.4199   -1.0409    1.1114 N.1       1 <0>        -0.4209
     23 H2          1.0039    1.9031    0.0027 H         1 <0>         0.0698
     24 H3         -0.5459    1.8868   -0.8726 H         1 <0>         0.0730
     25 H4         -0.5289    1.8773    0.9072 H         1 <0>         0.0654
     26 H5         -1.6614   -0.2318    2.1149 H         1 <0>         0.1358
     27 H6         -3.9710   -1.0811    2.1407 H         1 <0>         0.1396
     28 H7         -1.4427   -0.9131   -2.0893 H         1 <0>         0.1397
     29 H8         -6.0830   -2.5335   -2.0534 H         1 <0>         0.1349
     30 H9         -4.8855   -3.6847   -1.3795 H         1 <0>         0.0875
     31 H10         0.2131   -0.7312    1.9857 H         1 <0>         0.4068
     32 H11         2.2870    0.1108   -0.8413 H         1 <0>         0.1431
     33 H12         4.7350   -0.0887   -0.8749 H         1 <0>         0.1398
     34 H13         4.6628   -1.5455    3.1620 H         1 <0>         0.1420
@<TRIPOS>BOND
     1    1    2 1
     2    1   23 1
     3    1   24 1
     4    1   25 1
     5    2    3 1
     6    2    4 1
     7    2   13 1
     8    4    9 ar
     9    4    5 ar
    10    5    6 ar
    11    5   26 1
    12    6    7 ar
    13    6   27 1
    14    7   12 1
    15    7    8 ar
    16    8    9 ar
    17    8   10 1
    18    9   28 1
    19   10   11 1
    20   11   12 1
    21   11   29 1
    22   11   30 1
    23   13   14 1
    24   13   31 1
    25   14   19 ar
    26   14   15 ar
    27   15   16 ar
    28   15   32 1
    29   16   17 ar
    30   16   33 1
    31   17   18 ar
    32   17   21 1
    33   18   19 ar
    34   18   34 1
    35   19   20 1
    36   21   22 3
@<TRIPOS>MOLECULE
ZINC42298920
   36    38     0     0     0
SMALL
USER_CHARGES

@<TRIPOS>ATOM
      1 C1          0.5836   -6.9861    0.6882 C.3       1 <0>         0.0259
      2 O1          0.4034   -5.5905    0.4391 O.3       1 <0>        -0.2985
      3 C2          0.5451   -4.7513    1.4988 C.ar      1 <0>         0.1642
      4 C3          0.8570   -5.2603    2.7513 C.ar      1 <0>        -0.2066
      5 C4          1.0005   -4.4057    3.8268 C.ar      1 <0>        -0.0442
      6 C5          0.8335   -3.0428    3.6559 C.ar      1 <0>        -0.1303
      7 C6          0.5221   -2.5334    2.4082 C.ar      1 <0>        -0.0398
      8 C7          0.3837   -3.3842    1.3284 C.ar      1 <0>        -0.1444
      9 C8          0.0516   -2.8279   -0.0322 C.3       1 <0>         0.1847
     10 N1         -1.3775   -3.0095   -0.2985 N.pl3     1 <0>        -0.6338
     11 C9         -2.3687   -2.0360    0.1836 C.3       1 <0>         0.1189
     12 C10        -3.5647   -2.7781    0.7227 C.2       1 <0>         0.5078
     13 O2         -4.2300   -2.2807    1.6066 O.2       1 <0>        -0.5254
     14 N2         -3.9038   -3.9864    0.2346 N.am      1 <0>        -0.6556
     15 C11        -3.1239   -4.6042   -0.7502 C.ar      1 <0>         0.0988
     16 C12        -1.8430   -4.1137   -1.0260 C.ar      1 <0>         0.1773
     17 C13        -1.0590   -4.7125   -1.9952 C.ar      1 <0>        -0.1247
     18 C14        -1.5487   -5.7985   -2.6998 C.ar      1 <0>        -0.1050
     19 C15        -2.8165   -6.2831   -2.4371 C.ar      1 <0>        -0.1288
     20 C16        -3.6068   -5.6928   -1.4572 C.ar      1 <0>        -0.1229
     21 Br1         1.0306   -1.8752    5.1302 Br        1 <0>        -0.0473
     22 H1          1.5906   -7.1604    1.0672 H         1 <0>         0.0569
     23 H2         -0.1454   -7.3205    1.4263 H         1 <0>         0.0551
     24 H3          0.4432   -7.5417   -0.2390 H         1 <0>         0.1040
     25 H4          0.9870   -6.3240    2.8852 H         1 <0>         0.1373
     26 H5          1.2429   -4.8016    4.8020 H         1 <0>         0.1354
     27 H6          0.3918   -1.4693    2.2769 H         1 <0>         0.1386
     28 H7          0.2942   -1.7656   -0.0595 H         1 <0>         0.0861
     29 H8          0.6321   -3.3528   -0.7909 H         1 <0>         0.0963
     30 H9         -1.9288   -1.4293    0.9751 H         1 <0>         0.1134
     31 H10        -2.6792   -1.3934   -0.6403 H         1 <0>         0.0942
     32 H11        -4.6968   -4.4336    0.5693 H         1 <0>         0.4100
     33 H12        -0.0688   -4.3340   -2.2016 H         1 <0>         0.1274
     34 H13        -0.9389   -6.2684   -3.4572 H         1 <0>         0.1245
     35 H14        -3.1934   -7.1297   -2.9917 H         1 <0>         0.1245
     36 H15        -4.5968   -6.0739   -1.2543 H         1 <0>         0.1262
@<TRIPOS>BOND
     1    1    2 1
     2    1   22 1
     3    1   23 1
     4    1   24 1
     5    2    3 1
     6    3    8 ar
     7    3    4 ar
     8    4    5 ar
     9    4   25 1
    10    5    6 ar
    11    5   26 1
    12    6    7 ar
    13    6   21 1
    14    7    8 ar
    15    7   27 1
    16    8    9 1
    17    9   10 1
    18    9   28 1
    19    9   29 1
    20   10   16 1
    21   10   11 1
    22   11   12 1
    23   11   30 1
    24   11   31 1
    25   12   13 2
    26   12   14 am
    27   14   15 1
    28   14   32 1
    29   15   20 ar
    30   15   16 ar
    31   16   17 ar
    32   17   18 ar
    33   17   33 1
    34   18   19 ar
    35   18   34 1
    36   19   20 ar
    37   19   35 1
    38   20   36 1
@<TRIPOS>MOLECULE
ZINC17111028
   34    36     0     0     0
SMALL
NO_CHARGES

@<TRIPOS>ATOM
      1 C1         -0.3563    0.7022    1.0028 C.ar      1 <0>        -0.1130
      2 C2          0.7139    1.5490    0.7758 C.ar      1 <0>        -0.1078
      3 C3          1.9709    1.0297    0.5433 C.ar      1 <0>        -0.0911
      4 C4          2.1615   -0.3521    0.5379 C.ar      1 <0>         0.0617
      5 C5          1.0785   -1.2006    0.7678 C.ar      1 <0>        -0.1391
      6 C6         -0.1737   -0.6691    0.9987 C.ar      1 <0>        -0.1055
      7 N1          3.4100   -0.8749    0.3066 N.2       1 <0>        -0.4420
      8 C7          3.8556   -1.8337    1.0474 C.2       1 <0>         0.1382
      9 C8          5.2258   -2.4075    0.7936 C.3       1 <0>         0.1143
     10 C9          5.1256   -3.8585    0.3667 C.2       1 <0>         0.5252
     11 O1          4.6660   -4.7801    1.0066 O.2       1 <0>        -0.4243
     12 N2          5.6531   -3.9110   -0.8724 N.am      1 <0>        -0.4915
     13 C10         6.0682   -2.7074   -1.2834 C.2       1 <0>         0.5374
     14 S1          6.7879   -2.4191   -2.8098 S.2       1 <0>        -0.5170
     15 N3          5.8573   -1.7492   -0.3631 N.pl3     1 <0>        -0.6370
     16 C11         5.7549   -5.0825   -1.6361 C.ar      1 <0>         0.1172
     17 C12         4.6085   -5.7025   -2.1143 C.ar      1 <0>        -0.0779
     18 C13         4.7113   -6.8564   -2.8663 C.ar      1 <0>        -0.0998
     19 C14         5.9558   -7.3948   -3.1428 C.ar      1 <0>        -0.0152
     20 C15         7.0999   -6.7788   -2.6669 C.ar      1 <0>        -0.0982
     21 C16         7.0025   -5.6211   -1.9200 C.ar      1 <0>        -0.0620
     22 Cl1         6.0818   -8.8455   -4.0879 Cl        1 <0>        -0.0547
     23 H1         -1.3375    1.1135    1.1884 H         1 <0>         0.1292
     24 H2          0.5650    2.6186    0.7803 H         1 <0>         0.1326
     25 H3          2.8055    1.6918    0.3655 H         1 <0>         0.1320
     26 H4          1.2197   -2.2714    0.7645 H         1 <0>         0.1235
     27 H5         -1.0131   -1.3250    1.1766 H         1 <0>         0.1296
     28 H6          5.8520   -2.3085    1.6802 H         1 <0>         0.1707
     29 H7          3.2465   -2.2246    1.8490 H         1 <0>         0.1343
     30 H8          6.0777   -0.8081   -0.4452 H         1 <0>         0.4611
     31 H9          3.6370   -5.2831   -1.8981 H         1 <0>         0.1348
     32 H10         3.8198   -7.3391   -3.2385 H         1 <0>         0.1458
     33 H11         8.0700   -7.2012   -2.8834 H         1 <0>         0.1472
     34 H12         7.8960   -5.1380   -1.5528 H         1 <0>         0.1412
@<TRIPOS>BOND
     1    1    6 ar
     2    1    2 ar
     3    1   23 1
     4    2    3 ar
     5    2   24 1
     6    3    4 ar
     7    3   25 1
     8    4    5 ar
     9    4    7 1
    10    5    6 ar
    11    5   26 1
    12    6   27 1
    13    7    8 2
    14    8   29 1
    15    8    9 1
    16    9   15 1
    17    9   10 1
    18    9   28 1
    19   10   11 2
    20   10   12 am
    21   12   13 1
    22   12   16 1
    23   13   14 2
    24   13   15 1
    25   15   30 1
    26   16   21 ar
    27   16   17 ar
    28   17   18 ar
    29   17   31 1
    30   18   19 ar
    31   18   32 1
    32   19   20 ar
    33   19   22 1
    34   20   21 ar
    35   20   33 1
    36   21   34 1
@<TRIPOS>MOLECULE
ZINC55491663
   39    42     0     0     0
SMALL
USER_CHARGES

@<TRIPOS>ATOM
      1 C1         -0.0166    1.3734    0.0096 C.ar      1 <0>        -0.1421
      2 C2          1.1703    2.0875    0.0021 C.ar      1 <0>        -0.0576
      3 C3          2.3842    1.4265   -0.0135 C.ar      1 <0>        -0.1670
      4 C4          2.4221    0.0443   -0.0217 C.ar      1 <0>         0.1587
      5 C5          1.2252   -0.6841   -0.0137 C.ar      1 <0>        -0.2026
      6 C6          0.0021   -0.0041    0.0020 C.ar      1 <0>        -0.0520
      7 C7          1.2540   -2.1535   -0.0228 C.2       1 <0>         0.3842
      8 O1          2.3159   -2.7392   -0.0372 O.2       1 <0>        -0.3710
      9 C8         -0.0360   -2.9325   -0.0141 C.3       1 <0>        -0.1180
     10 C9          0.2683   -4.4084   -0.0261 C.2       1 <0>         0.3924
     11 N1         -0.7554   -5.3005   -0.0265 N.am      1 <0>        -0.6353
     12 H1         -1.6692   -4.9750   -0.0192 H         1 <0>         0.4193
     13 C10        -0.5284   -6.6273   -0.0374 C.2       1 <0>         0.5570
     14 O2         -1.4584   -7.4151   -0.0384 O.2       1 <0>        -0.5214
     15 C11         0.8255   -7.0981   -0.0481 C.2       1 <0>        -0.2460
     16 C12         1.3070   -8.4788   -0.0596 C.2       1 <0>        -0.0533
     17 C13         2.6445   -8.6606   -0.0688 C.2       1 <0>        -0.1699
     18 S1          3.3302   -7.0260   -0.0631 S.3       1 <0>         0.1552
     19 C14         1.8149   -6.1021   -0.0470 C.2       1 <0>         0.1010
     20 N2          1.5122   -4.8069   -0.0413 N.2       1 <0>        -0.4379
     21 C15         3.3834   -9.9639   -0.0801 C.3       1 <0>        -0.0374
     22 C16         2.3998  -11.0813    0.2959 C.3       1 <0>        -0.1151
     23 C17         1.1233  -10.9111   -0.5331 C.3       1 <0>        -0.1230
     24 C18         0.3581   -9.6742   -0.0609 C.3       1 <0>        -0.0589
     25 F1          3.6087   -0.6014   -0.0378 F         1 <0>        -0.1149
     26 H2         -0.9602    1.8985    0.0259 H         1 <0>         0.1379
     27 H3          1.1472    3.1673    0.0081 H         1 <0>         0.1392
     28 H4          3.3050    1.9909   -0.0196 H         1 <0>         0.1434
     29 H5         -0.9251   -0.5580    0.0082 H         1 <0>         0.1415
     30 H6         -0.6034   -2.6858    0.8832 H         1 <0>         0.1380
     31 H7         -0.6218   -2.6752   -0.8966 H         1 <0>         0.1379
     32 H8          3.7862  -10.1489   -1.0759 H         1 <0>         0.0864
     33 H9          4.1966   -9.9312    0.6451 H         1 <0>         0.0846
     34 H10         2.8486  -12.0511    0.0812 H         1 <0>         0.0762
     35 H11         2.1584  -11.0144    1.3567 H         1 <0>         0.0692
     36 H12         1.3871  -10.7947   -1.5843 H         1 <0>         0.0659
     37 H13         0.4942  -11.7932   -0.4145 H         1 <0>         0.0716
     38 H14        -0.0204   -9.8411    0.9475 H         1 <0>         0.0784
     39 H15        -0.4737   -9.4794   -0.7378 H         1 <0>         0.0853
@<TRIPOS>BOND
     1    1    6 ar
     2    1    2 ar
     3    1   26 1
     4    2    3 ar
     5    2   27 1
     6    3    4 ar
     7    3   28 1
     8    4    5 ar
     9    4   25 1
    10    5    6 ar
    11    5    7 1
    12    6   29 1
    13    7    8 2
    14    7    9 1
    15    9   10 1
    16    9   30 1
    17    9   31 1
    18   10   20 2
    19   10   11 1
    20   11   12 1
    21   11   13 am
    22   13   14 2
    23   13   15 1
    24   15   19 2
    25   15   16 1
    26   16   24 1
    27   16   17 2
    28   17   18 1
    29   17   21 1
    30   18   19 1
    31   19   20 1
    32   21   22 1
    33   21   32 1
    34   21   33 1
    35   22   23 1
    36   22   34 1
    37   22   35 1
    38   23   24 1
    39   23   36 1
    40   23   37 1
    41   24   38 1
    42   24   39 1
@<TRIPOS>MOLECULE
ZINC16882491
   37    38     0     0     0
SMALL
USER_CHARGES
5-butyl-3-[(2-chlorophenyl)methyl]-6-hydroxy-pyrimidin-4-one
@<TRIPOS>ATOM
      1 C1          0.4378    1.3198   -2.3903 C.3       1 <0>        -0.1524
      2 C2         -0.3372    1.7920   -1.1585 C.3       1 <0>        -0.1234
      3 C3          0.3198    1.2297    0.1037 C.3       1 <0>        -0.1094
      4 C4         -0.4552    1.7019    1.3356 C.3       1 <0>        -0.0380
      5 C5          0.1919    1.1481    2.5788 C.2       1 <0>        -0.2959
      6 C6          1.1189    1.8912    3.2843 C.2       1 <0>         0.3729
      7 N1          1.6760    1.3774    4.3901 N.2       1 <0>        -0.5801
      8 C7          1.3686    0.1812    4.8120 C.2       1 <0>         0.4051
      9 N2          0.4759   -0.5910    4.1618 N.am      1 <0>        -0.5212
     10 C8         -0.1287   -0.1368    3.0439 C.2       1 <0>         0.5367
     11 O1         -0.9386   -0.8297    2.4493 O.2       1 <0>        -0.5253
     12 C9          0.1610   -1.9285    4.6699 C.3       1 <0>         0.1305
     13 C10         1.0014   -2.9506    3.9488 C.ar      1 <0>        -0.1124
     14 C11         0.4676   -3.6624    2.8908 C.ar      1 <0>        -0.0711
     15 C12         1.2382   -4.6002    2.2296 C.ar      1 <0>        -0.1149
     16 C13         2.5435   -4.8264    2.6253 C.ar      1 <0>        -0.0942
     17 C14         3.0784   -4.1151    3.6825 C.ar      1 <0>        -0.1119
     18 C15         2.3090   -3.1726    4.3418 C.ar      1 <0>        -0.0221
     19 Cl1         2.9825   -2.2736    5.6653 Cl        1 <0>        -0.0684
     20 O2          1.4587    3.1319    2.8643 O.3       1 <0>        -0.4408
     21 H1          0.4282    0.2306   -2.4301 H         1 <0>         0.0524
     22 H2         -0.0303    1.7203   -3.2896 H         1 <0>         0.0535
     23 H3          1.4674    1.6721   -2.3289 H         1 <0>         0.0521
     24 H4         -1.3668    1.4396   -1.2199 H         1 <0>         0.0616
     25 H5         -0.3276    2.8812   -1.1187 H         1 <0>         0.0610
     26 H6          0.3102    0.1405    0.0639 H         1 <0>         0.0599
     27 H7          1.3494    1.5821    0.1652 H         1 <0>         0.0566
     28 H8         -0.4456    2.7911    1.3754 H         1 <0>         0.0742
     29 H9         -1.4848    1.3496    1.2742 H         1 <0>         0.0736
     30 H10         1.8421   -0.1996    5.7048 H         1 <0>         0.2028
     31 H11         0.3743   -1.9709    5.7380 H         1 <0>         0.1100
     32 H12        -0.8946   -2.1419    4.5015 H         1 <0>         0.1179
     33 H13        -0.5519   -3.4859    2.5810 H         1 <0>         0.1419
     34 H14         0.8206   -5.1563    1.4034 H         1 <0>         0.1344
     35 H15         3.1453   -5.5588    2.1079 H         1 <0>         0.1364
     36 H16         4.0982   -4.2915    3.9913 H         1 <0>         0.1380
     37 H17         2.1141    3.5707    3.4237 H         1 <0>         0.4101
@<TRIPOS>BOND
     1    1    2 1
     2    1   21 1
     3    1   22 1
     4    1   23 1
     5    2    3 1
     6    2   24 1
     7    2   25 1
     8    3    4 1
     9    3   26 1
    10    3   27 1
    11    4    5 1
    12    4   28 1
    13    4   29 1
    14    5   10 1
    15    5    6 2
    16    6    7 1
    17    6   20 1
    18    7    8 2
    19    8    9 1
    20    8   30 1
    21    9   10 am
    22    9   12 1
    23   10   11 2
    24   12   13 1
    25   12   31 1
    26   12   32 1
    27   13   18 ar
    28   13   14 ar
    29   14   15 ar
    30   14   33 1
    31   15   16 ar
    32   15   34 1
    33   16   17 ar
    34   16   35 1
    35   17   18 ar
    36   17   36 1
    37   18   19 1
    38   20   37 1
@<TRIPOS>MOLECULE
ZINC36932260
   38    40     0     0     0
SMALL
USER_CHARGES

@<TRIPOS>ATOM
      1 C1          0.8744   -1.1820    1.1508 C.3       1 <0>        -0.1515
      2 C2          0.4930   -1.6433   -0.2573 C.3       1 <0>        -0.1263
      3 C3          0.5951   -0.4632   -1.2257 C.3       1 <0>         0.2305
      4 H1         -0.0118    0.3634   -0.8564 H         1 <0>         0.1036
      5 C4          0.0974   -0.8839   -2.5845 C.2       1 <0>        -0.1602
      6 C5         -1.1075   -0.6538   -3.1611 C.2       1 <0>        -0.1530
      7 C6         -1.3459   -1.1401   -4.4328 C.2       1 <0>        -0.1566
      8 C7         -0.3678   -1.8329   -5.0657 C.2       1 <0>        -0.1777
      9 S1          0.9445   -1.8081   -3.8555 S.3       1 <0>         0.0546
     10 N1          1.9925   -0.0353   -1.3284 N.pl3     1 <0>        -0.7209
     11 C8          2.2946    1.2792   -1.6768 C.ar      1 <0>         0.2742
     12 C9          1.2815    2.1531   -2.0457 C.ar      1 <0>        -0.1995
     13 C10         1.5831    3.4561   -2.3903 C.ar      1 <0>        -0.0390
     14 C11         2.8946    3.9001   -2.3707 C.ar      1 <0>        -0.1810
     15 C12         3.9136    3.0449   -2.0070 C.ar      1 <0>        -0.0325
     16 C13         3.6230    1.7272   -1.6508 C.ar      1 <0>        -0.1208
     17 C14         4.7089    0.8084   -1.2541 C.2       1 <0>         0.2372
     18 N2          4.5761   -0.4512   -0.9078 N.2       1 <0>        -0.3095
     19 N3          5.7333   -0.9381   -0.6267 N.2       1 <0>        -0.2795
     20 C15         6.6429   -0.0175   -0.7809 C.2       1 <0>         0.1595
     21 O1          6.0224    1.1048   -1.1856 O.3       1 <0>        -0.2211
     22 C16         8.1233   -0.1825   -0.5523 C.3       1 <0>        -0.0586
     23 H2          1.9240   -0.8883    1.1650 H         1 <0>         0.0591
     24 H3          0.2552   -0.3311    1.4346 H         1 <0>         0.0564
     25 H4          0.7159   -1.9980    1.8559 H         1 <0>         0.0609
     26 H5          1.1710   -2.4349   -0.5764 H         1 <0>         0.0734
     27 H6         -0.5294   -2.0210   -0.2513 H         1 <0>         0.0835
     28 H7         -1.8700   -0.0989   -2.6346 H         1 <0>         0.1326
     29 H8         -2.2975   -0.9710   -4.9148 H         1 <0>         0.1332
     30 H9         -0.3781   -2.2803   -6.0486 H         1 <0>         0.1843
     31 H10         2.7073   -0.6673   -1.1538 H         1 <0>         0.4217
     32 H11         0.2563    1.8138   -2.0637 H         1 <0>         0.1322
     33 H12         0.7915    4.1325   -2.6770 H         1 <0>         0.1297
     34 H13         3.1206    4.9208   -2.6418 H         1 <0>         0.1297
     35 H14         4.9350    3.3958   -1.9936 H         1 <0>         0.1300
     36 H15         8.6003   -0.5045   -1.4780 H         1 <0>         0.0999
     37 H16         8.5503    0.7691   -0.2355 H         1 <0>         0.0939
     38 H17         8.2902   -0.9313    0.2220 H         1 <0>         0.1079
@<TRIPOS>BOND
     1    1    2 1
     2    1   23 1
     3    1   24 1
     4    1   25 1
     5    2    3 1
     6    2   26 1
     7    2   27 1
     8    3    4 1
     9    3    5 1
    10    3   10 1
    11    5    9 1
    12    5    6 2
    13    6    7 1
    14    6   28 1
    15    7    8 2
    16    7   29 1
    17    8    9 1
    18    8   30 1
    19   10   11 1
    20   10   31 1
    21   11   16 ar
    22   11   12 ar
    23   12   13 ar
    24   12   32 1
    25   13   14 ar
    26   13   33 1
    27   14   15 ar
    28   14   34 1
    29   15   16 ar
    30   15   35 1
    31   16   17 1
    32   17   21 1
    33   17   18 2
    34   18   19 1
    35   19   20 2
    36   20   21 1
    37   20   22 1
    38   22   36 1
    39   22   37 1
    40   22   38 1
@<TRIPOS>MOLECULE
ZINC47333972
   47    48     0     0     0
SMALL
USER_CHARGES

@<TRIPOS>ATOM
      1 C1         -0.2702    1.3774   -0.3360 C.3       1 <0>        -0.1758
      2 C2         -0.1469   -0.1467   -0.3867 C.3       1 <0>         0.1013
      3 N1          0.5437   -0.5402   -1.6173 N.am      1 <0>        -0.6247
      4 C3          2.0032   -0.6668   -1.6298 C.3       1 <0>         0.1392
      5 C4          2.4005   -2.0412   -1.0875 C.3       1 <0>        -0.1393
      6 H1          1.9999   -2.1847   -0.0840 H         1 <0>         0.0821
      7 C5          3.9407   -2.1976   -1.0836 C.3       1 <0>        -0.1475
      8 C6          4.1195   -3.6623   -1.5579 C.3       1 <0>         0.0443
      9 O1          3.0744   -3.8284   -2.5400 O.3       1 <0>        -0.3751
     10 C7          1.9070   -3.1562   -2.0298 C.3       1 <0>         0.0379
     11 C8         -0.1636   -0.7857   -2.7380 C.2       1 <0>         0.7047
     12 O2          0.4001   -1.1905   -3.7363 O.2       1 <0>        -0.5601
     13 N2         -1.4959   -0.5824   -2.7520 N.am      1 <0>        -0.6807
     14 C9         -2.2118   -0.7177   -3.9469 C.ar      1 <0>         0.1670
     15 C10        -1.5670   -0.5571   -5.1665 C.ar      1 <0>        -0.1281
     16 C11        -2.2761   -0.6918   -6.3437 C.ar      1 <0>        -0.1019
     17 C12        -3.6271   -0.9857   -6.3092 C.ar      1 <0>        -0.1375
     18 C13        -4.2720   -1.1457   -5.0967 C.ar      1 <0>        -0.0942
     19 C14        -3.5669   -1.0184   -3.9157 C.ar      1 <0>        -0.1117
     20 C15        -4.2693   -1.1992   -2.5947 C.3       1 <0>        -0.0510
     21 C16        -5.4676   -0.2509   -2.5203 C.3       1 <0>        -0.1458
     22 C17        -4.7543   -2.6448   -2.4685 C.3       1 <0>        -0.1433
     23 H2          0.7244    1.8232   -0.3530 H         1 <0>         0.0638
     24 H3         -0.8387    1.7248   -1.1987 H         1 <0>         0.0582
     25 H4         -0.7840    1.6702    0.5796 H         1 <0>         0.0718
     26 H5          0.4217   -0.4941    0.4760 H         1 <0>         0.0874
     27 H6         -1.1414   -0.5925   -0.3697 H         1 <0>         0.0719
     28 H7          2.3684   -0.5598   -2.6512 H         1 <0>         0.0952
     29 H8          2.4408    0.1111   -1.0041 H         1 <0>         0.0814
     30 H9          4.4040   -1.5027   -1.7840 H         1 <0>         0.0813
     31 H10         4.3429   -2.0619   -0.0797 H         1 <0>         0.0818
     32 H11         5.1000   -3.8013   -2.0134 H         1 <0>         0.0932
     33 H12         3.9794   -4.3544   -0.7275 H         1 <0>         0.0584
     34 H13         1.2838   -3.8594   -1.4774 H         1 <0>         0.0478
     35 H14         1.3392   -2.7217   -2.8526 H         1 <0>         0.1116
     36 H15        -1.9585   -0.3423   -1.9340 H         1 <0>         0.4052
     37 H16        -0.5122   -0.3269   -5.1941 H         1 <0>         0.1474
     38 H17        -1.7753   -0.5670   -7.2924 H         1 <0>         0.1241
     39 H18        -4.1796   -1.0902   -7.2313 H         1 <0>         0.1219
     40 H19        -5.3272   -1.3746   -5.0731 H         1 <0>         0.1242
     41 H20        -3.5780   -0.9756   -1.7821 H         1 <0>         0.0645
     42 H21        -6.1589   -0.4744   -3.3328 H         1 <0>         0.0607
     43 H22        -5.9756   -0.3816   -1.5648 H         1 <0>         0.0589
     44 H23        -5.1221    0.7790   -2.6101 H         1 <0>         0.0559
     45 H24        -3.9005   -3.3204   -2.5215 H         1 <0>         0.0553
     46 H25        -5.2623   -2.7755   -1.5130 H         1 <0>         0.0586
     47 H26        -5.4455   -2.8683   -3.2811 H         1 <0>         0.0600
@<TRIPOS>BOND
     1    1    2 1
     2    1   23 1
     3    1   24 1
     4    1   25 1
     5    2    3 1
     6    2   26 1
     7    2   27 1
     8    3    4 1
     9    3   11 am
    10    4    5 1
    11    4   28 1
    12    4   29 1
    13    5    6 1
    14    5   10 1
    15    5    7 1
    16    7    8 1
    17    7   30 1
    18    7   31 1
    19    8    9 1
    20    8   32 1
    21    8   33 1
    22    9   10 1
    23   10   34 1
    24   10   35 1
    25   11   12 2
    26   11   13 am
    27   13   14 1
    28   13   36 1
    29   14   19 ar
    30   14   15 ar
    31   15   16 ar
    32   15   37 1
    33   16   17 ar
    34   16   38 1
    35   17   18 ar
    36   17   39 1
    37   18   19 ar
    38   18   40 1
    39   19   20 1
    40   20   21 1
    41   20   22 1
    42   20   41 1
    43   21   42 1
    44   21   43 1
    45   21   44 1
    46   22   45 1
    47   22   46 1
    48   22   47 1
@<TRIPOS>MOLECULE
ZINC55269818
   42    43     0     0     0
SMALL
USER_CHARGES

@<TRIPOS>ATOM
      1 C1         -0.0187    1.5258    0.0104 C.3       1 <0>        -0.1660
      2 C2          0.0021   -0.0041    0.0020 C.3       1 <0>         0.1200
      3 N1          0.6878   -0.4765   -1.2033 N.pl3     1 <0>        -0.7125
      4 C3          0.8307   -1.8355   -1.4312 C.ar      1 <0>         0.4397
      5 C4          0.3203   -2.7650   -0.5222 C.ar      1 <0>        -0.2880
      6 C5          0.4884   -4.1081   -0.7943 C.ar      1 <0>         0.2200
      7 N2          1.1236   -4.4694   -1.9005 N.ar      1 <0>        -0.5456
      8 C6          1.5937   -3.5680   -2.7386 C.ar      1 <0>         0.3659
      9 N3          1.4512   -2.2760   -2.5216 N.ar      1 <0>        -0.5649
     10 C7          2.3092   -4.0272   -3.9829 C.3       1 <0>         0.0398
     11 C8          1.3142   -4.1924   -5.1025 C.2       1 <0>         0.0612
     12 N4          0.9288   -3.3056   -5.9860 N.2       1 <0>        -0.5029
     13 C9          0.0411   -3.6028   -6.9139 C.2       1 <0>         0.0617
     14 C10        -0.4530   -4.8673   -6.9103 C.2       1 <0>        -0.2389
     15 S1          0.4340   -5.5632   -5.5255 S.3       1 <0>         0.1221
     16 C11        -0.4053   -2.5853   -7.9320 C.3       1 <0>        -0.0800
     17 C12        -0.0432   -5.1509    0.1549 C.3       1 <0>        -0.0205
     18 C13        -1.5633   -5.2458    0.0089 C.3       1 <0>        -0.1371
     19 C14         0.5861   -6.5066   -0.1721 C.3       1 <0>        -0.1282
     20 C15         0.3076   -4.7590    1.5917 C.3       1 <0>        -0.1402
     21 H1          1.0039    1.9031    0.0027 H         1 <0>         0.0648
     22 H2         -0.5459    1.8868   -0.8726 H         1 <0>         0.0644
     23 H3         -0.5289    1.8773    0.9072 H         1 <0>         0.0785
     24 H4          0.5293   -0.3651    0.8851 H         1 <0>         0.0668
     25 H5         -1.0205   -0.3814    0.0098 H         1 <0>         0.0657
     26 H6          1.0417    0.1622   -1.8418 H         1 <0>         0.4088
     27 H7         -0.1926   -2.4411    0.3714 H         1 <0>         0.1408
     28 H8          3.0562   -3.2860   -4.2670 H         1 <0>         0.1219
     29 H9          2.7995   -4.9812   -3.7889 H         1 <0>         0.1186
     30 H10        -1.1785   -5.3263   -7.5656 H         1 <0>         0.1952
     31 H11         0.2435   -2.6374   -8.8063 H         1 <0>         0.0753
     32 H12        -1.4328   -2.7952   -8.2290 H         1 <0>         0.0737
     33 H13        -0.3494   -1.5874   -7.4970 H         1 <0>         0.0737
     34 H14        -1.8133   -5.5250   -1.0146 H         1 <0>         0.0585
     35 H15        -1.9479   -6.0000    0.6955 H         1 <0>         0.0680
     36 H16        -2.0117   -4.2800    0.2419 H         1 <0>         0.0563
     37 H17         1.6691   -6.4389   -0.0681 H         1 <0>         0.0569
     38 H18         0.2016   -7.2608    0.5145 H         1 <0>         0.0554
     39 H19         0.3362   -6.7858   -1.1956 H         1 <0>         0.0672
     40 H20        -0.1408   -3.7932    1.8246 H         1 <0>         0.0581
     41 H21        -0.0769   -5.5132    2.2782 H         1 <0>         0.0675
     42 H22         1.3905   -4.6914    1.6957 H         1 <0>         0.0582
@<TRIPOS>BOND
     1    1    2 1
     2    1   21 1
     3    1   22 1
     4    1   23 1
     5    2    3 1
     6    2   24 1
     7    2   25 1
     8    3    4 1
     9    3   26 1
    10    4    9 ar
    11    4    5 ar
    12    5    6 ar
    13    5   27 1
    14    6    7 ar
    15    6   17 1
    16    7    8 ar
    17    8    9 ar
    18    8   10 1
    19   10   11 1
    20   10   28 1
    21   10   29 1
    22   11   15 1
    23   11   12 2
    24   12   13 1
    25   13   14 2
    26   13   16 1
    27   14   15 1
    28   14   30 1
    29   16   31 1
    30   16   32 1
    31   16   33 1
    32   17   18 1
    33   17   19 1
    34   17   20 1
    35   18   34 1
    36   18   35 1
    37   18   36 1
    38   19   37 1
    39   19   38 1
    40   19   39 1
    41   20   40 1
    42   20   41 1
    43   20   42 1
@<TRIPOS>MOLECULE
ZINC66361478
   44    45     0     0     0
SMALL
USER_CHARGES

@<TRIPOS>ATOM
      1 C1         -0.0187    1.5258    0.0104 C.3       1 <0>        -0.1447
      2 C2          0.0021   -0.0041    0.0020 C.3       1 <0>        -0.1363
      3 C3          0.7182   -0.4975   -1.2568 C.3       1 <0>         0.1526
      4 H1          0.2444   -0.0644   -2.1377 H         1 <0>         0.0909
      5 C4          0.6303   -2.0233   -1.3286 C.3       1 <0>        -0.0933
      6 C5         -0.8388   -2.4477   -1.3781 C.3       1 <0>        -0.1138
      7 C6         -0.9267   -3.9735   -1.4499 C.3       1 <0>        -0.1190
      8 C7         -0.2105   -4.4669   -2.7087 C.3       1 <0>        -0.1219
      9 C8          1.2586   -4.0425   -2.6592 C.3       1 <0>        -0.1197
     10 C9          1.3465   -2.5167   -2.5874 C.3       1 <0>        -0.1135
     11 N1          2.1249   -0.0911   -1.2094 N.am      1 <0>        -0.7189
     12 C10         2.4874    1.1337   -1.6396 C.2       1 <0>         0.5873
     13 O1          1.6468    1.9013   -2.0673 O.2       1 <0>        -0.5187
     14 C11         3.9030    1.5427   -1.5919 C.2       1 <0>        -0.2540
     15 C12         4.9864    0.7622   -1.1301 C.2       1 <0>         0.0796
     16 N2          6.0744    1.4721   -1.2478 N.2       1 <0>        -0.2734
     17 N3          5.7441    2.7223   -1.7826 N.pl3     1 <0>        -0.3365
     18 C13         4.4190    2.7577   -1.9957 C.2       1 <0>         0.0659
     19 C14         3.6379    3.9129   -2.5671 C.3       1 <0>         0.3394
     20 F1          4.4503    4.6348   -3.4481 F         1 <0>        -0.1989
     21 F2          2.5213    3.4260   -3.2551 F         1 <0>        -0.1503
     22 C15         6.6862    3.8074   -2.0677 C.3       1 <0>         0.0887
     23 H2          1.0039    1.9031    0.0027 H         1 <0>         0.0546
     24 H3         -0.5459    1.8868   -0.8726 H         1 <0>         0.0603
     25 H4         -0.5289    1.8773    0.9072 H         1 <0>         0.0436
     26 H5          0.5293   -0.3651    0.8851 H         1 <0>         0.0613
     27 H6         -1.0205   -0.3814    0.0098 H         1 <0>         0.0741
     28 H7          1.1041   -2.4564   -0.4477 H         1 <0>         0.0752
     29 H8         -1.3490   -2.0962   -0.4813 H         1 <0>         0.0687
     30 H9         -1.3126   -2.0146   -2.2590 H         1 <0>         0.0653
     31 H10        -0.4528   -4.4066   -0.5690 H         1 <0>         0.0615
     32 H11        -1.9733   -4.2759   -1.4852 H         1 <0>         0.0628
     33 H12        -0.2731   -5.5539   -2.7599 H         1 <0>         0.0604
     34 H13        -0.6843   -4.0338   -3.5897 H         1 <0>         0.0615
     35 H14         1.7324   -4.4756   -1.7783 H         1 <0>         0.0611
     36 H15         1.7688   -4.3940   -3.5560 H         1 <0>         0.0611
     37 H16         0.8726   -2.0836   -3.4683 H         1 <0>         0.0634
     38 H17         2.3931   -2.2143   -2.5521 H         1 <0>         0.0619
     39 H18         2.7954   -0.7034   -0.8683 H         1 <0>         0.3963
     40 H19         4.9246   -0.2454   -0.7462 H         1 <0>         0.1961
     41 H20         3.3100    4.5654   -1.7579 H         1 <0>         0.1338
     42 H21         7.0579    3.7074   -3.0874 H         1 <0>         0.0886
     43 H22         6.1798    4.7664   -1.9580 H         1 <0>         0.0965
     44 H23         7.5218    3.7558   -1.3697 H         1 <0>         0.1001
@<TRIPOS>BOND
     1    1    2 1
     2    1   23 1
     3    1   24 1
     4    1   25 1
     5    2    3 1
     6    2   26 1
     7    2   27 1
     8    3    4 1
     9    3    5 1
    10    3   11 1
    11    5   10 1
    12    5    6 1
    13    5   28 1
    14    6    7 1
    15    6   29 1
    16    6   30 1
    17    7    8 1
    18    7   31 1
    19    7   32 1
    20    8    9 1
    21    8   33 1
    22    8   34 1
    23    9   10 1
    24    9   35 1
    25    9   36 1
    26   10   37 1
    27   10   38 1
    28   11   12 am
    29   11   39 1
    30   12   13 2
    31   12   14 1
    32   14   18 2
    33   14   15 1
    34   15   16 2
    35   15   40 1
    36   16   17 1
    37   17   18 1
    38   17   22 1
    39   18   19 1
    40   19   20 1
    41   19   21 1
    42   19   41 1
    43   22   42 1
    44   22   43 1
    45   22   44 1
@<TRIPOS>MOLECULE
ZINC02525075
   34    37     0     0     0
SMALL
USER_CHARGES
[(S)-(4-chlorophenyl)sulfinyl]-hydroxy-BLAHone
@<TRIPOS>ATOM
      1 C1          3.9608   -1.0628   -0.0411 C.ar      1 <0>        -0.1803
      2 C2          3.5720    0.2728   -0.0302 C.ar      1 <0>        -0.0553
      3 C3          2.2352    0.6018   -0.0159 C.ar      1 <0>        -0.1700
      4 C4          1.3046   -0.4148   -0.0126 C.ar      1 <0>         0.1842
      5 C5          1.6753   -1.7596   -0.0230 C.ar      1 <0>        -0.1872
      6 C6          3.0309   -2.0832   -0.0376 C.ar      1 <0>        -0.0371
      7 C7          0.5928   -2.7603   -0.0183 C.2       1 <0>         0.4433
      8 O1          0.8318   -3.9576   -0.0273 O.2       1 <0>        -0.5185
      9 C8         -0.7302   -2.2742   -0.0033 C.2       1 <0>        -0.7905
     10 C9         -0.9936   -0.9377    0.0069 C.2       1 <0>         0.5606
     11 N1          0.0021   -0.0041    0.0020 N.pl3     1 <0>        -0.5299
     12 C10        -0.0179    1.4671    0.0101 C.3       1 <0>         0.1155
     13 C11         1.4636    1.8996   -0.0017 C.3       1 <0>        -0.0758
     14 O2         -2.2793   -0.5238    0.0219 O.3       1 <0>        -0.6746
     15 S1         -2.0702   -3.4183    0.0039 S.o       1 <0>         1.4401
     16 O3         -1.4875   -4.6331   -0.4476 O.2       1 <0>        -0.8688
     17 C12        -2.3781   -3.7034    1.7152 C.ar      1 <0>        -0.4459
     18 C13        -1.7257   -4.7294    2.3731 C.ar      1 <0>        -0.0388
     19 C14        -1.9626   -4.9499    3.7168 C.ar      1 <0>        -0.1375
     20 C15        -2.8613   -4.1508    4.4008 C.ar      1 <0>        -0.0166
     21 C16        -3.5182   -3.1277    3.7405 C.ar      1 <0>        -0.1385
     22 C17        -3.2762   -2.9046    2.3981 C.ar      1 <0>        -0.0277
     23 Cl1        -3.1642   -4.4313    6.0870 Cl        1 <0>        -0.0890
     24 H1          5.0128   -1.3067   -0.0521 H         1 <0>         0.1193
     25 H2          4.3195    1.0524   -0.0333 H         1 <0>         0.1204
     26 H3          3.3487   -3.1153   -0.0460 H         1 <0>         0.1291
     27 H4         -0.5499    1.8315   -0.8811 H         1 <0>         0.0806
     28 H5         -0.5328    1.8218    0.9151 H         1 <0>         0.0793
     29 H6          1.7305    2.4750    0.8970 H         1 <0>         0.0859
     30 H7          1.7134    2.4846   -0.8992 H         1 <0>         0.0867
     31 H8         -1.0275   -5.3559    1.8380 H         1 <0>         0.1368
     32 H9         -1.4495   -5.7487    4.2317 H         1 <0>         0.1249
     33 H10        -4.2196   -2.5034    4.2740 H         1 <0>         0.1293
     34 H11        -3.7887   -2.1057    1.8827 H         1 <0>         0.1458
@<TRIPOS>BOND
     1    1    6 ar
     2    1    2 ar
     3    1   24 1
     4    2    3 ar
     5    2   25 1
     6    3   13 1
     7    3    4 ar
     8    4   11 1
     9    4    5 ar
    10    5    6 ar
    11    5    7 1
    12    6   26 1
    13    7    8 2
    14    7    9 1
    15    9   10 2
    16    9   15 1
    17   10   11 1
    18   10   14 1
    19   11   12 1
    20   12   13 1
    21   12   27 1
    22   12   28 1
    23   13   29 1
    24   13   30 1
    25   15   16 2
    26   15   17 1
    27   17   22 ar
    28   17   18 ar
    29   18   19 ar
    30   18   31 1
    31   19   20 ar
    32   19   32 1
    33   20   21 ar
    34   20   23 1
    35   21   22 ar
    36   21   33 1
    37   22   34 1
@<TRIPOS>MOLECULE
ZINC04370956
   36    38     0     0     0
SMALL
USER_CHARGES

@<TRIPOS>ATOM
      1 C1         -0.0187    1.5258    0.0104 C.3       1 <0>        -0.1475
      2 C2          0.0021   -0.0041    0.0020 C.3       1 <0>        -0.0884
      3 C3         -1.4117   -0.5257    0.0127 C.ar      1 <0>        -0.0403
      4 C4         -2.0507   -0.7660    1.2147 C.ar      1 <0>        -0.1481
      5 C5         -3.3476   -1.2445    1.2246 C.ar      1 <0>         0.0102
      6 C6         -4.0056   -1.4822    0.0324 C.ar      1 <0>        -0.6484
      7 C7         -3.3670   -1.2410   -1.1697 C.ar      1 <0>        -0.0238
      8 C8         -2.0716   -0.7585   -1.1795 C.ar      1 <0>        -0.1506
      9 S1         -5.6582   -2.0932    0.0449 S.o2      1 <0>         2.6109
     10 O1         -5.8583   -2.7487   -1.1999 O.2       1 <0>        -0.9741
     11 O2         -5.8380   -2.7527    1.2907 O.2       1 <0>        -0.9452
     12 C9         -6.7305   -0.6950    0.0559 C.ar      1 <0>        -0.8811
     13 C10        -7.5710   -0.4519   -1.0235 C.ar      1 <0>         0.2684
     14 N1         -8.3822    0.5791   -1.0503 N.ar      1 <0>        -0.5733
     15 C11        -8.4422    1.4511   -0.0371 C.ar      1 <0>         0.2061
     16 C12        -9.3167    2.5502   -0.0806 C.ar      1 <0>        -0.1490
     17 C13        -9.3588    3.4235    0.9649 C.ar      1 <0>         0.1053
     18 C14        -8.5426    3.2441    2.0849 C.ar      1 <0>        -0.0007
     19 C15        -7.6828    2.1887    2.1588 C.ar      1 <0>        -0.0373
     20 C16        -7.6171    1.2718    1.0991 C.ar      1 <0>        -0.1830
     21 C17        -6.7431    0.1619    1.1415 C.ar      1 <0>         0.3901
     22 O3         -5.9381   -0.0533    2.2112 O.3       1 <0>        -0.6322
     23 F1         -8.6060    4.1267    3.1058 F         1 <0>        -0.1415
     24 F2        -10.2015    4.4784    0.9175 F         1 <0>        -0.1358
     25 H1          1.0039    1.9031    0.0027 H         1 <0>         0.0573
     26 H2         -0.5459    1.8868   -0.8726 H         1 <0>         0.0568
     27 H3         -0.5289    1.8773    0.9072 H         1 <0>         0.0581
     28 H4          0.5123   -0.3556   -0.8948 H         1 <0>         0.0726
     29 H5          0.5293   -0.3651    0.8851 H         1 <0>         0.0732
     30 H6         -1.5366   -0.5803    2.1462 H         1 <0>         0.1254
     31 H7         -3.8465   -1.4329    2.1637 H         1 <0>         0.1493
     32 H8         -3.8810   -1.4271   -2.1011 H         1 <0>         0.1371
     33 H9         -1.5739   -0.5665   -2.1185 H         1 <0>         0.1248
     34 H10        -7.5560   -1.1301   -1.8639 H         1 <0>         0.1570
     35 H11        -9.9532    2.7026   -0.9397 H         1 <0>         0.1477
     36 H12        -7.0557    2.0592    3.0285 H         1 <0>         0.1500
@<TRIPOS>BOND
     1    1    2 1
     2    1   25 1
     3    1   26 1
     4    1   27 1
     5    2    3 1
     6    2   28 1
     7    2   29 1
     8    3    8 ar
     9    3    4 ar
    10    4    5 ar
    11    4   30 1
    12    5    6 ar
    13    5   31 1
    14    6    7 ar
    15    6    9 1
    16    7    8 ar
    17    7   32 1
    18    8   33 1
    19    9   10 2
    20    9   11 2
    21    9   12 1
    22   12   21 ar
    23   12   13 ar
    24   13   34 1
    25   13   14 ar
    26   14   15 ar
    27   15   20 ar
    28   15   16 ar
    29   16   17 ar
    30   16   35 1
    31   17   18 ar
    32   17   24 1
    33   18   19 ar
    34   18   23 1
    35   19   20 ar
    36   19   36 1
    37   20   21 ar
    38   21   22 1
@<TRIPOS>MOLECULE
ZINC48519571
   33    33     0     0     0
SMALL
USER_CHARGES

@<TRIPOS>ATOM
      1 C1         -0.0187    1.5258    0.0104 C.3       1 <0>        -0.1590
      2 C2          0.0021   -0.0041    0.0020 C.3       1 <0>        -0.0459
      3 C3          0.7421   -0.5109    1.2415 C.3       1 <0>        -0.1486
      4 C4         -1.4333   -0.5336    0.0129 C.3       1 <0>        -0.1413
      5 C5          0.7182   -0.4975   -1.2568 C.3       1 <0>        -0.0752
      6 C6          2.1320    0.0241   -1.2675 C.2       1 <0>         0.4913
      7 O1          2.9574   -0.2850   -2.2890 O.3       1 <0>        -0.7278
      8 N1          2.5532    0.7665   -0.2997 N.2       1 <0>        -1.0292
      9 S1          4.1068    1.3397   -0.3114 S.o2      1 <0>         2.6233
     10 O2          4.9577    0.2092   -0.1800 O.2       1 <0>        -1.0064
     11 O3          4.1994    2.2396   -1.4072 O.2       1 <0>        -0.9855
     12 C7          4.3182    2.3017    1.1495 C.ar      1 <0>        -0.6094
     13 C8          5.2137    1.8956    2.1211 C.ar      1 <0>        -0.0262
     14 C9          5.3800    2.6504    3.2670 C.ar      1 <0>        -0.1322
     15 C10         4.6508    3.8120    3.4420 C.ar      1 <0>        -0.0788
     16 C11         3.7553    4.2188    2.4712 C.ar      1 <0>        -0.1189
     17 C12         3.5924    3.4663    1.3218 C.ar      1 <0>         0.0027
     18 Br1         2.3724    4.0262   -0.0102 Br        1 <0>        -0.0138
     19 H1          1.0039    1.9031    0.0027 H         1 <0>         0.1177
     20 H2         -0.5459    1.8868   -0.8726 H         1 <0>         0.0290
     21 H3         -0.5289    1.8773    0.9072 H         1 <0>         0.0315
     22 H4          0.2319   -0.1594    2.1383 H         1 <0>         0.0324
     23 H5          0.7568   -1.6008    1.2356 H         1 <0>         0.0317
     24 H6          1.7647   -0.1336    1.2338 H         1 <0>         0.1039
     25 H7         -1.9605   -0.1726   -0.8702 H         1 <0>         0.0462
     26 H8         -1.4185   -1.6235    0.0069 H         1 <0>         0.0461
     27 H9         -1.9435   -0.1821    0.9097 H         1 <0>         0.0468
     28 H10         0.7330   -1.5874   -1.2628 H         1 <0>         0.0749
     29 H11         0.1910   -0.1364   -2.1398 H         1 <0>         0.0749
     30 H12         5.7833    0.9881    1.9850 H         1 <0>         0.1461
     31 H13         6.0795    2.3326    4.0260 H         1 <0>         0.1323
     32 H14         4.7808    4.4013    4.3377 H         1 <0>         0.1322
     33 H15         3.1857    5.1262    2.6080 H         1 <0>         0.1353
@<TRIPOS>BOND
     1    1    2 1
     2    1   19 1
     3    1   20 1
     4    1   21 1
     5    2    3 1
     6    2    4 1
     7    2    5 1
     8    3   22 1
     9    3   23 1
    10    3   24 1
    11    4   25 1
    12    4   26 1
    13    4   27 1
    14    5    6 1
    15    5   28 1
    16    5   29 1
    17    6    7 1
    18    6    8 2
    19    8    9 1
    20    9   10 2
    21    9   11 2
    22    9   12 1
    23   12   17 ar
    24   12   13 ar
    25   13   14 ar
    26   13   30 1
    27   14   15 ar
    28   14   31 1
    29   15   16 ar
    30   15   32 1
    31   16   17 ar
    32   16   33 1
    33   17   18 1
@<TRIPOS>MOLECULE
ZINC61692090
   25    27     0     0     0
SMALL
USER_CHARGES

@<TRIPOS>ATOM
      1 C1         -0.0167    1.3792    0.0096 C.ar      1 <0>        -0.0758
      2 C2          1.1697    2.0895    0.0021 C.ar      1 <0>        -0.1028
      3 C3          2.3780    1.4188   -0.0130 C.ar      1 <0>        -0.0044
      4 C4          2.3999    0.0295   -0.0207 C.ar      1 <0>         0.1770
      5 C5          1.2078   -0.6804   -0.0132 C.ar      1 <0>        -0.0557
      6 C6          0.0021   -0.0041    0.0020 C.ar      1 <0>        -0.0816
      7 Br1        -1.6231   -0.9708    0.0130 Br        1 <0>        -0.0410
      8 N1          3.6248   -0.6540   -0.0366 N.pl3     1 <0>        -0.4601
      9 C7          4.3557   -1.0680    1.0453 C.2       1 <0>         0.1636
     10 N2          5.4224   -1.6608    0.5883 N.2       1 <0>        -0.2869
     11 N3          5.4179   -1.6510   -0.6968 N.2       1 <0>        -0.3428
     12 C8          4.3355   -1.0514   -1.1358 C.2       1 <0>         0.3883
     13 S1          3.8859   -0.8017   -2.8210 S.3       1 <0>        -0.7960
     14 C9          3.9938   -0.8734    2.4952 C.3       1 <0>        -0.0680
     15 C10         5.0495   -1.2356    3.5416 C.3       1 <0>        -0.1523
     16 C11         3.8203   -2.1273    3.3545 C.3       1 <0>        -0.1647
     17 Cl1         3.8671    2.3112   -0.0230 Cl        1 <0>        -0.0399
     18 H1         -0.9597    1.9053    0.0260 H         1 <0>         0.1448
     19 H2          1.1520    3.1693    0.0077 H         1 <0>         0.1477
     20 H3          1.2218   -1.7603   -0.0195 H         1 <0>         0.1425
     21 H4          3.3447   -0.0239    2.7077 H         1 <0>         0.1098
     22 H5          6.0058   -1.6148    3.1814 H         1 <0>         0.1078
     23 H6          5.0953   -0.6243    4.4429 H         1 <0>         0.0965
     24 H7          3.0575   -2.1026    4.1327 H         1 <0>         0.0966
     25 H8          3.9680   -3.0931    2.8712 H         1 <0>         0.0975
@<TRIPOS>BOND
     1    1    6 ar
     2    1    2 ar
     3    1   18 1
     4    2    3 ar
     5    2   19 1
     6    3    4 ar
     7    3   17 1
     8    4    5 ar
     9    4    8 1
    10    5    6 ar
    11    5   20 1
    12    6    7 1
    13    8   12 1
    14    8    9 1
    15    9   14 1
    16    9   10 2
    17   10   11 1
    18   11   12 2
    19   12   13 1
    20   14   16 1
    21   14   15 1
    22   14   21 1
    23   15   16 1
    24   15   22 1
    25   15   23 1
    26   16   24 1
    27   16   25 1
@<TRIPOS>MOLECULE
ZINC34937253
   27    29     0     0     0
SMALL
USER_CHARGES

@<TRIPOS>ATOM
      1 C1         -0.0164    1.3594    0.0095 C.ar      1 <0>        -0.1935
      2 C2          1.1684    2.0910    0.0021 C.ar      1 <0>        -0.0566
      3 C3          2.3810    1.4672   -0.0133 C.ar      1 <0>        -0.1472
      4 C4          2.4407    0.0669   -0.0214 C.ar      1 <0>         0.2207
      5 C5          1.2314   -0.6783   -0.0133 C.ar      1 <0>        -0.2405
      6 C6          0.0021   -0.0041    0.0020 C.ar      1 <0>        -0.0092
      7 C7          1.3070   -2.0841   -0.0212 C.2       1 <0>         0.5096
      8 O1          0.1910   -2.8352   -0.0145 O.3       1 <0>        -0.5993
      9 N1          2.5316   -2.6602   -0.0360 N.pl3     1 <0>        -0.4654
     10 C8          3.6463   -1.9104   -0.0426 C.2       1 <0>         0.5096
     11 N2          3.6110   -0.5869   -0.0361 N.2       1 <0>        -0.5551
     12 S1          5.1678   -2.6949   -0.0609 S.2       1 <0>        -0.6968
     13 C9          2.6381   -4.0567   -0.0440 C.ar      1 <0>         0.1899
     14 C10         2.6851   -4.7441   -1.2497 C.ar      1 <0>        -0.0846
     15 C11         2.7901   -6.1211   -1.2544 C.ar      1 <0>        -0.0983
     16 C12         2.8486   -6.8161   -0.0601 C.ar      1 <0>        -0.1132
     17 C13         2.8021   -6.1354    1.1424 C.ar      1 <0>        -0.0893
     18 C14         2.7028   -4.7569    1.1542 C.ar      1 <0>        -0.0589
     19 Br1         2.6478   -3.8257    2.7991 Br        1 <0>        -0.0454
     20 H1         -0.9630    1.8791    0.0259 H         1 <0>         0.1197
     21 H2          1.1263    3.1701    0.0083 H         1 <0>         0.1217
     22 H3          3.2907    2.0493   -0.0195 H         1 <0>         0.1308
     23 H4         -0.9235   -0.5606    0.0079 H         1 <0>         0.1284
     24 H5          2.6391   -4.2023   -2.1829 H         1 <0>         0.1267
     25 H6          2.8263   -6.6560   -2.1920 H         1 <0>         0.1313
     26 H7          2.9304   -7.8930   -0.0668 H         1 <0>         0.1313
     27 H8          2.8476   -6.6811    2.0733 H         1 <0>         0.1337
@<TRIPOS>BOND
     1    1    6 ar
     2    1    2 ar
     3    1   20 1
     4    2    3 ar
     5    2   21 1
     6    3    4 ar
     7    3   22 1
     8    4   11 2
     9    4    5 ar
    10    5    6 ar
    11    5    7 2
    12    6   23 1
    13    7    8 1
    14    7    9 1
    15    9   10 1
    16    9   13 1
    17   10   11 1
    18   10   12 2
    19   13   18 ar
    20   13   14 ar
    21   14   15 ar
    22   14   24 1
    23   15   16 ar
    24   15   25 1
    25   16   17 ar
    26   16   26 1
    27   17   18 ar
    28   17   27 1
    29   18   19 1
@<TRIPOS>MOLECULE
ZINC08436507
   29    31     0     0     0
SMALL
USER_CHARGES
3-(4-bromobenzoyl)-2-sulfanyl-quinazolin-4-one
@<TRIPOS>ATOM
      1 C1          1.9103    0.2414   -3.7320 C.ar      1 <0>        -0.1845
      2 C2          0.7453    0.9945   -3.6589 C.ar      1 <0>        -0.0627
      3 C3         -0.3156    0.5792   -2.8870 C.ar      1 <0>        -0.1411
      4 C4         -0.2223   -0.6148   -2.1666 C.ar      1 <0>         0.2064
      5 C5          0.9645   -1.3785   -2.2432 C.ar      1 <0>        -0.2473
      6 C6          2.0270   -0.9388   -3.0316 C.ar      1 <0>        -0.0218
      7 C7          1.0365   -2.6292   -1.4757 C.2       1 <0>         0.5487
      8 O1          2.0319   -3.3285   -1.5018 O.3       1 <0>        -0.4975
      9 N1         -0.0442   -2.9754   -0.7387 N.am      1 <0>        -0.5203
     10 C8         -1.1580   -2.1754   -0.7196 C.2       1 <0>         0.5077
     11 N2         -1.2440   -1.0574   -1.3954 N.2       1 <0>        -0.5538
     12 S1         -2.5359   -2.6753    0.2583 S.2       1 <0>        -0.6828
     13 C9         -0.0258   -4.1141   -0.0179 C.2       1 <0>         0.5265
     14 O2         -1.0308   -4.4879    0.5531 O.2       1 <0>        -0.3772
     15 C10         1.2159   -4.9072    0.0777 C.ar      1 <0>        -0.1249
     16 C11         2.4428   -4.2686    0.2733 C.ar      1 <0>         0.0187
     17 C12         3.5981   -5.0155    0.3670 C.ar      1 <0>        -0.1270
     18 C13         3.5452   -6.3950    0.2565 C.ar      1 <0>        -0.0595
     19 C14         2.3327   -7.0338    0.0568 C.ar      1 <0>        -0.1207
     20 C15         1.1695   -6.2989   -0.0329 C.ar      1 <0>        -0.0556
     21 Br1         5.1354   -7.4109    0.3796 Br        1 <0>        -0.0622
     22 H1          2.7317    0.5841   -4.3437 H         1 <0>         0.1215
     23 H2          0.6711    1.9173   -4.2152 H         1 <0>         0.1232
     24 H3         -1.2179    1.1709   -2.8416 H         1 <0>         0.1317
     25 H4          2.9356   -1.5195   -3.0923 H         1 <0>         0.1275
     26 H5          2.4858   -3.1926    0.3552 H         1 <0>         0.1267
     27 H6          4.5467   -4.5233    0.5227 H         1 <0>         0.1313
     28 H7          2.2982   -8.1098   -0.0286 H         1 <0>         0.1334
     29 H8          0.2245   -6.7983   -0.1880 H         1 <0>         0.1356
@<TRIPOS>BOND
     1    1    6 ar
     2    1    2 ar
     3    1   22 1
     4    2    3 ar
     5    2   23 1
     6    3    4 ar
     7    3   24 1
     8    4   11 2
     9    4    5 ar
    10    5    6 ar
    11    5    7 2
    12    6   25 1
    13    7    8 1
    14    7    9 1
    15    9   10 1
    16    9   13 am
    17   10   11 1
    18   10   12 2
    19   13   14 2
    20   13   15 1
    21   15   20 ar
    22   15   16 ar
    23   16   17 ar
    24   16   26 1
    25   17   18 ar
    26   17   27 1
    27   18   19 ar
    28   18   21 1
    29   19   20 ar
    30   19   28 1
    31   20   29 1
@<TRIPOS>MOLECULE
ZINC37385886
   25    26     0     0     0
SMALL
USER_CHARGES

@<TRIPOS>ATOM
      1 C1         -0.0168    1.3850    0.0097 C.ar      1 <0>        -0.0388
      2 C2          1.1900    2.0615    0.0018 C.ar      1 <0>        -0.2042
      3 C3          2.3743    1.3325   -0.0135 C.ar      1 <0>         0.4484
      4 N1          2.3512    0.0087   -0.0203 N.ar      1 <0>        -0.5828
      5 C4          1.2160   -0.6638   -0.0131 C.ar      1 <0>         0.1705
      6 C5          0.0021   -0.0041    0.0020 C.ar      1 <0>        -0.1921
      7 Cl1        -1.4839   -0.9015    0.0120 Cl        1 <0>        -0.1042
      8 N2          3.5942    2.0003   -0.0220 N.2       1 <0>        -1.0610
      9 S1          5.0090    1.1399   -0.0401 S.o2      1 <0>         2.6123
     10 O1          5.0819    0.4519    1.2011 O.2       1 <0>        -0.9805
     11 O2          5.0576    0.4645   -1.2894 O.2       1 <0>        -1.0008
     12 C6          6.3287    2.3074   -0.0471 C.ar      1 <0>        -0.6619
     13 C7          6.8316    2.7764   -1.2490 C.ar      1 <0>         0.2331
     14 C8          7.8683    3.6934   -1.2543 C.ar      1 <0>        -0.2075
     15 C9          8.4016    4.1412   -0.0578 C.ar      1 <0>         0.1726
     16 C10         7.8978    3.6715    1.1431 C.ar      1 <0>        -0.1670
     17 C11         6.8581    2.7593    1.1477 C.ar      1 <0>         0.0452
     18 Br1         6.1654    2.1242    2.7886 Br        1 <0>         0.0273
     19 F1          9.4138    5.0360   -0.0621 F         1 <0>        -0.1232
     20 F2          6.3109    2.3385   -2.4162 F         1 <0>        -0.0964
     21 H1         -0.9522    1.9246    0.0259 H         1 <0>         0.1249
     22 H2          1.2120    3.1413    0.0070 H         1 <0>         0.1296
     23 H3          1.2359   -1.7436   -0.0191 H         1 <0>         0.1421
     24 H4          8.2611    4.0592   -2.1915 H         1 <0>         0.1587
     25 H5          8.3140    4.0205    2.0765 H         1 <0>         0.1556
@<TRIPOS>BOND
     1    1    6 ar
     2    1    2 ar
     3    1   21 1
     4    2    3 ar
     5    2   22 1
     6    3    4 ar
     7    3    8 1
     8    4    5 ar
     9    5    6 ar
    10    5   23 1
    11    6    7 1
    12    8    9 1
    13    9   10 2
    14    9   11 2
    15    9   12 1
    16   12   17 ar
    17   12   13 ar
    18   13   14 ar
    19   13   20 1
    20   14   15 ar
    21   14   24 1
    22   15   16 ar
    23   15   19 1
    24   16   17 ar
    25   16   25 1
    26   17   18 1
@<TRIPOS>MOLECULE
ZINC41573368
   28    30     0     0     0
SMALL
USER_CHARGES

@<TRIPOS>ATOM
      1 C1         -0.0184    1.5028    0.0103 C.3       1 <0>        -0.0607
      2 C2          0.0021   -0.0041    0.0020 C.2       1 <0>         0.0872
      3 N1         -1.0151   -0.8156    0.0021 N.2       1 <0>        -0.5138
      4 C3         -0.8648   -2.1563   -0.0063 C.ar      1 <0>         0.1146
      5 C4         -1.8412   -3.1743   -0.0069 C.ar      1 <0>        -0.1281
      6 C5         -1.4662   -4.4995   -0.0151 C.ar      1 <0>         0.2840
      7 C6         -0.1226   -4.8713   -0.0234 C.ar      1 <0>        -0.2182
      8 C7          0.8531   -3.8937   -0.0235 C.ar      1 <0>        -0.0197
      9 C8          0.4863   -2.5697   -0.0149 C.ar      1 <0>        -0.2310
     10 S1          1.3456   -1.0175   -0.0168 S.3       1 <0>         0.0203
     11 N2         -2.4527   -5.4918   -0.0146 N.2       1 <0>        -1.0815
     12 S2         -2.0194   -7.0901   -0.0243 S.o2      1 <0>         2.6290
     13 O1         -1.3881   -7.3321   -1.2742 O.2       1 <0>        -1.0146
     14 O2         -1.3750   -7.3438    1.2165 O.2       1 <0>        -1.0165
     15 C9         -3.5077   -8.0333   -0.0209 C.2       1 <0>        -0.6561
     16 C10        -4.2310   -8.4898   -1.0722 C.2       1 <0>        -0.0456
     17 C11        -5.3804   -9.2187   -0.8294 C.2       1 <0>        -0.1320
     18 C12        -5.7498   -9.4551    0.4541 C.2       1 <0>        -0.1748
     19 S3         -4.4495   -8.6421    1.3681 S.3       1 <0>         0.2111
     20 Br1        -7.2488  -10.4057    1.1061 Br        1 <0>         0.0358
     21 H1          1.0042    1.8801    0.0026 H         1 <0>         0.0806
     22 H2         -0.5455    1.8639   -0.8728 H         1 <0>         0.0862
     23 H3         -0.5286    1.8543    0.9071 H         1 <0>         0.0863
     24 H4         -2.8891   -2.9131   -0.0005 H         1 <0>         0.1256
     25 H5          0.1531   -5.9155   -0.0294 H         1 <0>         0.1142
     26 H6          1.8975   -4.1683   -0.0303 H         1 <0>         0.1194
     27 H7         -3.9144   -8.2869   -2.0846 H         1 <0>         0.1530
     28 H8         -5.9752   -9.5938   -1.6491 H         1 <0>         0.1454
@<TRIPOS>BOND
     1    1    2 1
     2    1   21 1
     3    1   22 1
     4    1   23 1
     5    2   10 1
     6    2    3 2
     7    3    4 1
     8    4    9 ar
     9    4    5 ar
    10    5    6 ar
    11    5   24 1
    12    6    7 ar
    13    6   11 1
    14    7    8 ar
    15    7   25 1
    16    8    9 ar
    17    8   26 1
    18    9   10 1
    19   11   12 1
    20   12   13 2
    21   12   14 2
    22   12   15 1
    23   15   19 1
    24   15   16 2
    25   16   17 1
    26   16   27 1
    27   17   18 2
    28   17   28 1
    29   18   19 1
    30   18   20 1
@<TRIPOS>MOLECULE
ZINC49061109
   28    30     0     0     0
SMALL
USER_CHARGES

@<TRIPOS>ATOM
      1 C1         -0.0167    1.3785    0.0096 C.2       1 <0>        -0.1656
      2 C2          1.1598    2.0518    0.0020 C.2       1 <0>        -0.1652
      3 S1          2.3480    0.7195   -0.0165 S.3       1 <0>         0.2261
      4 C3          1.1968   -0.6450   -0.0128 C.2       1 <0>        -0.6638
      5 C4          0.0021   -0.0041    0.0020 C.2       1 <0>        -0.0172
      6 Br1        -1.6139   -0.9860    0.0128 Br        1 <0>        -0.0266
      7 S2          1.5274   -2.3756   -0.0264 S.o2      1 <0>         2.6303
      8 O1          1.0747   -2.8854    1.2204 O.2       1 <0>        -0.9833
      9 O2          1.0505   -2.8705   -1.2701 O.2       1 <0>        -0.9833
     10 N1          3.1731   -2.5596   -0.0435 N.2       1 <0>        -1.0202
     11 C5          3.7275   -3.8276   -0.0564 C.2       1 <0>         0.2543
     12 C6          5.0674   -4.1699   -0.0659 C.2       1 <0>        -0.2307
     13 C7          5.3944   -5.5953   -0.0790 C.2       1 <0>        -0.0476
     14 C8          4.3201   -6.4044   -0.0816 C.2       1 <0>        -0.2596
     15 S3          2.9291   -5.3024   -0.0569 S.3       1 <0>         0.0515
     16 C9          4.7120   -7.8571   -0.0997 C.3       1 <0>        -0.0187
     17 C10         6.1924   -7.8565   -0.5412 C.3       1 <0>        -0.1147
     18 C11         6.6554   -6.4568   -0.0885 C.3       1 <0>        -0.0591
     19 C12         6.0923   -3.1698   -0.0634 C.1       1 <0>         0.3262
     20 N2          6.9054   -2.3765   -0.0614 N.1       1 <0>        -0.5082
     21 H1         -0.9545    1.9138    0.0259 H         1 <0>         0.1477
     22 H2          1.3333    3.1177    0.0061 H         1 <0>         0.1989
     23 H3          4.6125   -8.2900    0.8957 H         1 <0>         0.0712
     24 H4          4.1019   -8.4064   -0.8167 H         1 <0>         0.0672
     25 H5          6.7529   -8.6377   -0.0276 H         1 <0>         0.0748
     26 H6          6.2770   -7.9645   -1.6225 H         1 <0>         0.0721
     27 H7          7.3825   -6.0536   -0.7933 H         1 <0>         0.0677
     28 H8          7.0858   -6.5068    0.9117 H         1 <0>         0.0758
@<TRIPOS>BOND
     1    1    5 1
     2    1    2 2
     3    1   21 1
     4    2    3 1
     5    2   22 1
     6    3    4 1
     7    4    5 2
     8    4    7 1
     9    5    6 1
    10    7    8 2
    11    7    9 2
    12    7   10 1
    13   10   11 1
    14   11   15 1
    15   11   12 2
    16   12   13 1
    17   12   19 1
    18   13   18 1
    19   13   14 2
    20   14   15 1
    21   14   16 1
    22   16   17 1
    23   16   23 1
    24   16   24 1
    25   17   18 1
    26   17   25 1
    27   17   26 1
    28   18   27 1
    29   18   28 1
    30   19   20 3
@<TRIPOS>MOLECULE
ZINC60443579
   38    40     0     0     0
SMALL
USER_CHARGES

@<TRIPOS>ATOM
      1 C1         -0.0167    1.3839    0.0097 C.ar      1 <0>        -0.1825
      2 C2          1.1700    2.0918    0.0021 C.ar      1 <0>        -0.0544
      3 C3          2.3814    1.4158   -0.0130 C.ar      1 <0>         0.0416
      4 C4          2.4014    0.0252   -0.0206 C.ar      1 <0>         0.1451
      5 C5          1.2141   -0.6824   -0.0131 C.ar      1 <0>        -0.2965
      6 C6          0.0021   -0.0041    0.0020 C.ar      1 <0>         0.3025
      7 N1         -1.2007   -0.7203    0.0101 N.2       1 <0>        -1.0798
      8 S1         -1.1784   -2.3761    0.0010 S.o2      1 <0>         2.6006
      9 O1         -0.6345   -2.7681   -1.2519 O.2       1 <0>        -1.0079
     10 O2         -0.6099   -2.7815    1.2386 O.2       1 <0>        -1.0079
     11 C7         -2.8544   -2.9198    0.0146 C.ar      1 <0>        -0.7177
     12 C8         -3.5027   -3.1343    1.2188 C.ar      1 <0>         0.2572
     13 C9         -4.8194   -3.5615    1.2296 C.ar      1 <0>        -0.2308
     14 C10        -5.4880   -3.7736    0.0361 C.ar      1 <0>         0.1981
     15 C11        -4.8400   -3.5582   -1.1681 C.ar      1 <0>        -0.2309
     16 C12        -3.5246   -3.1269   -1.1788 C.ar      1 <0>         0.2572
     17 F1         -2.8937   -2.9122   -2.3540 F         1 <0>        -0.0927
     18 F2         -6.7728   -4.1913    0.0466 F         1 <0>        -0.1202
     19 F3         -2.8501   -2.9273    2.3835 F         1 <0>        -0.0928
     20 F4          3.5807   -0.6338   -0.0358 F         1 <0>        -0.1501
     21 N2          3.5850    2.1342   -0.0211 N.pl3     1 <0>        -0.6671
     22 C13         4.3058    2.5848   -1.2206 C.3       1 <0>         0.1324
     23 C14         5.5828    3.3081   -0.7432 C.3       1 <0>        -0.1296
     24 C15         5.7970    2.7310    0.6811 C.3       1 <0>        -0.1334
     25 C16         4.3344    2.5685    1.1718 C.3       1 <0>         0.1320
     26 H1         -0.9594    1.9108    0.0260 H         1 <0>         0.1209
     27 H2          1.1545    3.1717    0.0077 H         1 <0>         0.1158
     28 H3          1.2287   -1.7622   -0.0194 H         1 <0>         0.1092
     29 H4         -5.3250   -3.7295    2.1690 H         1 <0>         0.1603
     30 H5         -5.3616   -3.7240   -2.0992 H         1 <0>         0.1603
     31 H6          4.5743    1.7263   -1.8362 H         1 <0>         0.0419
     32 H7          3.6819    3.2724   -1.7916 H         1 <0>         0.0432
     33 H8          6.4272    3.0660   -1.3884 H         1 <0>         0.0704
     34 H9          5.4234    4.3856   -0.7027 H         1 <0>         0.0680
     35 H10         6.3080    1.7690    0.6400 H         1 <0>         0.0700
     36 H11         6.3424    3.4348    1.3098 H         1 <0>         0.0710
     37 H12         3.9469    3.5193    1.5379 H         1 <0>         0.0418
     38 H13         4.2786    1.8095    1.9521 H         1 <0>         0.0547
@<TRIPOS>BOND
     1    1    6 ar
     2    1    2 ar
     3    1   26 1
     4    2    3 ar
     5    2   27 1
     6    3    4 ar
     7    3   21 1
     8    4    5 ar
     9    4   20 1
    10    5    6 ar
    11    5   28 1
    12    6    7 1
    13    7    8 1
    14    8    9 2
    15    8   10 2
    16    8   11 1
    17   11   16 ar
    18   11   12 ar
    19   12   13 ar
    20   12   19 1
    21   13   14 ar
    22   13   29 1
    23   14   15 ar
    24   14   18 1
    25   15   16 ar
    26   15   30 1
    27   16   17 1
    28   21   25 1
    29   21   22 1
    30   22   23 1
    31   22   31 1
    32   22   32 1
    33   23   24 1
    34   23   33 1
    35   23   34 1
    36   24   25 1
    37   24   35 1
    38   24   36 1
    39   25   37 1
    40   25   38 1
@<TRIPOS>MOLECULE
ZINC13195713
   59    63     0     0     0
SMALL
USER_CHARGES
(3R)-3-[[4-(1-adamantyl)phenyl]sulfonylamino]-3-phenyl-propanoic acid
@<TRIPOS>ATOM
      1 C1         -1.7587   -5.8349   -2.4549 C.ar      1 <0>        -0.1286
      2 C2         -1.3910   -4.6593   -3.0825 C.ar      1 <0>        -0.1200
      3 C3         -1.1434   -3.5242   -2.3335 C.ar      1 <0>        -0.1078
      4 C4         -1.2644   -3.5643   -0.9570 C.ar      1 <0>        -0.0845
      5 C5         -1.6275   -4.7411   -0.3291 C.ar      1 <0>        -0.1043
      6 C6         -1.8793   -5.8751   -1.0784 C.ar      1 <0>        -0.1228
      7 C7         -0.9946   -2.3268   -0.1405 C.3       1 <0>         0.2165
      8 H1         -0.3938   -1.6298   -0.7248 H         1 <0>         0.0887
      9 C8         -2.3216   -1.6648    0.2361 C.3       1 <0>        -0.1618
     10 C9         -2.0501   -0.3822    0.9792 C.2       1 <0>         0.4603
     11 O1         -0.9153   -0.0725    1.2552 O.co2     1 <0>        -0.6185
     12 N1         -0.2691   -2.6943    1.0780 N.pl3     1 <0>        -1.0855
     13 S1          1.3853   -2.6279    1.1085 S.o2      1 <0>         2.6968
     14 O2          1.7835   -3.0195    2.4152 O.2       1 <0>        -0.9769
     15 O3          1.8402   -3.2977   -0.0593 O.2       1 <0>        -0.9670
     16 C10         1.8422   -0.9357    0.9288 C.ar      1 <0>        -0.6384
     17 C11         1.9607   -0.3820   -0.3323 C.ar      1 <0>        -0.0127
     18 C12         2.3144    0.9469   -0.4731 C.ar      1 <0>        -0.1419
     19 C13         2.5599    1.7193    0.6467 C.ar      1 <0>        -0.0175
     20 C14         2.4465    1.1641    1.9076 C.ar      1 <0>        -0.1315
     21 C15         2.0877   -0.1633    2.0486 C.ar      1 <0>         0.0086
     22 C16         2.9516    3.1663    0.4930 C.3       1 <0>        -0.0153
     23 C17         4.3284    3.3916    1.1212 C.3       1 <0>        -0.0982
     24 C18         4.7260    4.8607    0.9651 C.3       1 <0>        -0.0849
     25 C19         4.7787    5.2196   -0.5213 C.3       1 <0>        -0.1068
     26 C20         3.4020    4.9944   -1.1495 C.3       1 <0>        -0.0851
     27 C21         3.0043    3.5253   -0.9934 C.3       1 <0>        -0.1051
     28 C22         2.3701    5.8794   -0.4474 C.3       1 <0>        -0.1084
     29 C23         2.3174    5.5205    1.0389 C.3       1 <0>        -0.0859
     30 C24         3.6941    5.7457    1.6671 C.3       1 <0>        -0.1072
     31 C25         1.9197    4.0514    1.1950 C.3       1 <0>        -0.0998
     32 H2         -1.9521   -6.7217   -3.0401 H         1 <0>         0.1163
     33 H3         -1.2968   -4.6279   -4.1579 H         1 <0>         0.1188
     34 H4         -0.8558   -2.6058   -2.8237 H         1 <0>         0.1212
     35 H5         -1.7177   -4.7736    0.7466 H         1 <0>         0.1197
     36 H6         -2.1669   -6.7935   -0.5882 H         1 <0>         0.1180
     37 H7         -2.8961   -2.3385    0.8719 H         1 <0>         0.0715
     38 H8         -2.8888   -1.4474   -0.6689 H         1 <0>         0.0758
     39 H9         -0.7577   -2.9765    1.8670 H         1 <0>         0.4144
     40 H10         1.7733   -0.9866   -1.2073 H         1 <0>         0.1263
     41 H11         2.4034    1.3805   -1.4583 H         1 <0>         0.1258
     42 H12         2.6386    1.7675    2.7825 H         1 <0>         0.1208
     43 H13         1.9994   -0.5971    3.0337 H         1 <0>         0.1296
     44 H14         4.2908    3.1359    2.1801 H         1 <0>         0.0650
     45 H15         5.0635    2.7611    0.6210 H         1 <0>         0.0626
     46 H16         5.7069    5.0212    1.4126 H         1 <0>         0.0678
     47 H17         5.5139    4.5891   -1.0215 H         1 <0>         0.0600
     48 H18         5.0620    6.2663   -0.6325 H         1 <0>         0.0591
     49 H19         3.4395    5.2501   -2.2084 H         1 <0>         0.0682
     50 H20         3.7394    2.8948   -1.4936 H         1 <0>         0.0650
     51 H21         2.0234    3.3648   -1.4409 H         1 <0>         0.0685
     52 H22         2.6534    6.9261   -0.5586 H         1 <0>         0.0588
     53 H23         1.3892    5.7190   -0.8950 H         1 <0>         0.0630
     54 H24         1.5822    6.1510    1.5391 H         1 <0>         0.0700
     55 H25         3.6566    5.4900    2.7260 H         1 <0>         0.0611
     56 H26         3.9774    6.7924    1.5559 H         1 <0>         0.0589
     57 H27         0.9388    3.8909    0.7475 H         1 <0>         0.0697
     58 H28         1.8821    3.7957    2.2540 H         1 <0>         0.0656
     59 O4         -3.0689    0.4163    1.3344 O.co2     1 <0>        -0.7759
@<TRIPOS>BOND
     1    1    6 ar
     2    1    2 ar
     3    1   32 1
     4    2    3 ar
     5    2   33 1
     6    3    4 ar
     7    3   34 1
     8    4    5 ar
     9    4    7 1
    10    5    6 ar
    11    5   35 1
    12    6   36 1
    13    7    8 1
    14    7    9 1
    15    7   12 1
    16    9   10 1
    17    9   37 1
    18    9   38 1
    19   10   11 2
    20   10   59 1
    21   12   13 1
    22   12   39 1
    23   13   14 2
    24   13   15 2
    25   13   16 1
    26   16   21 ar
    27   16   17 ar
    28   17   18 ar
    29   17   40 1
    30   18   19 ar
    31   18   41 1
    32   19   20 ar
    33   19   22 1
    34   20   21 ar
    35   20   42 1
    36   21   43 1
    37   22   27 1
    38   22   31 1
    39   22   23 1
    40   23   24 1
    41   23   44 1
    42   23   45 1
    43   24   30 1
    44   24   25 1
    45   24   46 1
    46   25   26 1
    47   25   47 1
    48   25   48 1
    49   26   27 1
    50   26   28 1
    51   26   49 1
    52   27   50 1
    53   27   51 1
    54   28   29 1
    55   28   52 1
    56   28   53 1
    57   29   30 1
    58   29   31 1
    59   29   54 1
    60   30   55 1
    61   30   56 1
    62   31   57 1
    63   31   58 1
@<TRIPOS>MOLECULE
ZINC17167005
   49    51     0     0     0
SMALL
USER_CHARGES

@<TRIPOS>ATOM
      1 C1         -1.4617    1.1867   -1.2643 C.3       1 <0>        -0.1501
      2 C2         -1.1135   -0.2783   -0.9936 C.3       1 <0>         0.0502
      3 O1         -0.2659   -0.7669   -2.0352 O.3       1 <0>        -0.3079
      4 C3          0.1387   -2.0621   -1.9455 C.ar      1 <0>         0.1061
      5 C4         -0.2755   -2.8425   -0.8844 C.ar      1 <0>        -0.1844
      6 C5          0.1429   -4.1761   -0.7957 C.ar      1 <0>        -0.0204
      7 C6          0.9790   -4.7102   -1.7841 C.ar      1 <0>        -0.1230
      8 C7          1.3868   -3.9239   -2.8388 C.ar      1 <0>        -0.0585
      9 C8          0.9669   -2.6032   -2.9283 C.ar      1 <0>         0.0747
     10 O2          1.3681   -1.8346   -3.9740 O.3       1 <0>        -0.4813
     11 C9          2.2866   -4.5000   -3.9016 C.3       1 <0>        -0.0523
     12 C10         3.7217   -4.1777   -3.5737 C.2       1 <0>        -0.1508
     13 C11         4.6051   -5.1408   -3.4833 C.2       1 <0>        -0.1831
     14 C12        -0.2933   -5.0114    0.3301 C.2       1 <0>        -0.0325
     15 C13         0.2455   -6.2443    0.5091 C.2       1 <0>        -0.1736
     16 C14        -0.1340   -7.3173    1.4577 C.2       1 <0>         0.5296
     17 O3         -1.0563   -7.1833    2.2461 O.2       1 <0>        -0.5341
     18 N1          0.5771   -8.4217    1.4035 N.2       1 <0>        -0.7108
     19 C15         1.5793   -8.5801    0.5534 C.2       1 <0>         0.4259
     20 S1          1.6079   -7.0334   -0.3392 S.3       1 <0>        -0.0988
     21 N2          2.3950   -9.6702    0.3932 N.2       1 <0>        -0.5629
     22 C16         2.0796  -10.8779    1.0229 C.ar      1 <0>         0.1728
     23 C17         0.7641  -11.1594    1.3690 C.ar      1 <0>        -0.1442
     24 C18         0.4558  -12.3544    1.9909 C.ar      1 <0>        -0.0188
     25 C19         1.4565  -13.2697    2.2686 C.ar      1 <0>        -0.1599
     26 C20         2.7664  -12.9915    1.9250 C.ar      1 <0>        -0.1000
     27 C21         3.0800  -11.8011    1.2984 C.ar      1 <0>        -0.1082
     28 C22         4.5074  -11.5020    0.9188 C.3       1 <0>        -0.0936
     29 Cl1        -1.1876  -12.7077    2.4248 Cl        1 <0>        -0.0957
     30 H1         -0.5465    1.7779   -1.2954 H         1 <0>         0.0648
     31 H2         -1.9785    1.2666   -2.2207 H         1 <0>         0.0656
     32 H3         -2.1082    1.5593   -0.4698 H         1 <0>         0.0772
     33 H4         -0.5967   -0.3582   -0.0372 H         1 <0>         0.0622
     34 H5         -2.0287   -0.8696   -0.9625 H         1 <0>         0.0627
     35 H6         -0.9200   -2.4256   -0.1247 H         1 <0>         0.1349
     36 H7          1.3041   -5.7381   -1.7191 H         1 <0>         0.1488
     37 H8          2.1950   -1.3583   -3.8175 H         1 <0>         0.3806
     38 H9          2.1568   -5.5816   -3.9404 H         1 <0>         0.0824
     39 H10         2.0291   -4.0682   -4.8688 H         1 <0>         0.0895
     40 H11         4.0219   -3.1528   -3.4132 H         1 <0>         0.1043
     41 H12         4.3049   -6.1658   -3.6438 H         1 <0>         0.1003
     42 H13         5.6336   -4.9099   -3.2482 H         1 <0>         0.0972
     43 H14        -1.0428   -4.6449    1.0158 H         1 <0>         0.1467
     44 H15        -0.0166  -10.4452    1.1527 H         1 <0>         0.1466
     45 H16         1.2135  -14.2028    2.7550 H         1 <0>         0.1183
     46 H17         3.5449  -13.7075    2.1433 H         1 <0>         0.1208
     47 H18         5.0036  -10.9915    1.7442 H         1 <0>         0.0569
     48 H19         5.0288  -12.4344    0.7023 H         1 <0>         0.0505
     49 H20         4.5223  -10.8638    0.0353 H         1 <0>         0.0752
@<TRIPOS>BOND
     1    1    2 1
     2    1   30 1
     3    1   31 1
     4    1   32 1
     5    2    3 1
     6    2   33 1
     7    2   34 1
     8    3    4 1
     9    4    9 ar
    10    4    5 ar
    11    5    6 ar
    12    5   35 1
    13    6    7 ar
    14    6   14 1
    15    7    8 ar
    16    7   36 1
    17    8    9 ar
    18    8   11 1
    19    9   10 1
    20   10   37 1
    21   11   12 1
    22   11   38 1
    23   11   39 1
    24   12   13 2
    25   12   40 1
    26   13   41 1
    27   13   42 1
    28   14   15 2
    29   14   43 1
    30   15   20 1
    31   15   16 1
    32   16   17 2
    33   16   18 1
    34   18   19 2
    35   19   20 1
    36   19   21 1
    37   21   22 1
    38   22   27 ar
    39   22   23 ar
    40   23   24 ar
    41   23   44 1
    42   24   25 ar
    43   24   29 1
    44   25   26 ar
    45   25   45 1
    46   26   27 ar
    47   26   46 1
    48   27   28 1
    49   28   47 1
    50   28   48 1
    51   28   49 1
@<TRIPOS>MOLECULE
ZINC02451484
   53    55     0     0     0
SMALL
USER_CHARGES

@<TRIPOS>ATOM
      1 C1          0.3464    1.5179    0.1952 C.3       1 <0>        -0.1506
      2 C2          0.4721   -0.0065    0.2301 C.3       1 <0>        -0.0874
      3 C3          1.1823   -0.4232    1.4923 C.ar      1 <0>        -0.0453
      4 C4          2.5587   -0.5379    1.5053 C.ar      1 <0>        -0.1214
      5 C5          3.2111   -0.9197    2.6632 C.ar      1 <0>        -0.1081
      6 C6          2.4882   -1.1878    3.8110 C.ar      1 <0>        -0.1210
      7 C7          1.1116   -1.0748    3.8040 C.ar      1 <0>        -0.0602
      8 C8          0.4543   -0.6866    2.6445 C.ar      1 <0>         0.1505
      9 N1         -0.9429   -0.5658    2.6358 N.pl3     1 <0>        -0.4391
     10 C9         -1.6853    0.4910    3.0922 C.2       1 <0>         0.0948
     11 N2         -2.9395    0.1962    2.8971 N.2       1 <0>        -0.2709
     12 N3         -3.0423   -0.9637    2.3536 N.2       1 <0>        -0.3433
     13 C10        -1.8484   -1.4763    2.1642 C.2       1 <0>         0.3895
     14 S1         -1.4822   -3.0416    1.4429 S.3       1 <0>        -0.7887
     15 C11        -1.1508    1.7590    3.7065 C.3       1 <0>         0.2242
     16 N4         -1.1270    2.8191    2.6956 N.am      1 <0>        -0.7138
     17 C12        -0.5648    4.0102    2.9813 C.2       1 <0>         0.5598
     18 O1          0.0038    4.1749    4.0429 O.2       1 <0>        -0.5390
     19 C13        -0.6397    5.1165    2.0033 C.ar      1 <0>        -0.1318
     20 C14        -1.3916    4.9708    0.8362 C.ar      1 <0>        -0.0849
     21 C15        -1.4576    6.0070   -0.0718 C.ar      1 <0>        -0.1229
     22 C16        -0.7803    7.1888    0.1719 C.ar      1 <0>        -0.0641
     23 C17        -0.0335    7.3398    1.3265 C.ar      1 <0>        -0.0983
     24 C18         0.0363    6.3131    2.2458 C.ar      1 <0>        -0.0558
     25 C19         0.7012    8.6302    1.5834 C.3       1 <0>        -0.1163
     26 C20        -0.8563    8.3163   -0.8251 C.3       1 <0>        -0.1209
     27 C21         0.3244   -1.3671    5.0553 C.3       1 <0>        -0.0821
     28 C22        -0.1442   -2.8234    5.0345 C.3       1 <0>        -0.1522
     29 H1          1.3347    1.9664    0.2960 H         1 <0>         0.0529
     30 H2         -0.0968    1.8243   -0.7523 H         1 <0>         0.0560
     31 H3         -0.2884    1.8490    1.0171 H         1 <0>         0.0579
     32 H4         -0.5217   -0.4537    0.2079 H         1 <0>         0.0824
     33 H5          1.0418   -0.3440   -0.6357 H         1 <0>         0.0714
     34 H6          3.1260   -0.3295    0.6102 H         1 <0>         0.1234
     35 H7          4.2874   -1.0090    2.6710 H         1 <0>         0.1225
     36 H8          3.0004   -1.4861    4.7138 H         1 <0>         0.1242
     37 H9         -1.7928    2.0605    4.5341 H         1 <0>         0.0921
     38 H10        -0.1397    1.5860    4.0753 H         1 <0>         0.0825
     39 H11        -1.5160    2.6637    1.8207 H         1 <0>         0.4036
     40 H12        -1.9200    4.0486    0.6445 H         1 <0>         0.1255
     41 H13        -2.0390    5.8955   -0.9752 H         1 <0>         0.1284
     42 H14         0.6163    6.4337    3.1488 H         1 <0>         0.1354
     43 H15         0.0530    9.3147    2.1305 H         1 <0>         0.0713
     44 H16         1.5957    8.4279    2.1726 H         1 <0>         0.0675
     45 H17         0.9865    9.0813    0.6330 H         1 <0>         0.0708
     46 H18        -1.7002    8.9613   -0.5806 H         1 <0>         0.0735
     47 H19         0.0662    8.8958   -0.7893 H         1 <0>         0.0722
     48 H20        -0.9897    7.9073   -1.8266 H         1 <0>         0.0678
     49 H21         0.9552   -1.2009    5.9286 H         1 <0>         0.0685
     50 H22        -0.5420   -0.7073    5.1021 H         1 <0>         0.0666
     51 H23        -0.7136   -3.0349    5.9396 H         1 <0>         0.0499
     52 H24        -0.7751   -2.9897    4.1613 H         1 <0>         0.0815
     53 H25         0.7221   -3.4833    4.9878 H         1 <0>         0.0516
@<TRIPOS>BOND
     1    1    2 1
     2    1   29 1
     3    1   30 1
     4    1   31 1
     5    2    3 1
     6    2   32 1
     7    2   33 1
     8    3    8 ar
     9    3    4 ar
    10    4    5 ar
    11    4   34 1
    12    5    6 ar
    13    5   35 1
    14    6    7 ar
    15    6   36 1
    16    7    8 ar
    17    7   27 1
    18    8    9 1
    19    9   13 1
    20    9   10 1
    21   10   15 1
    22   10   11 2
    23   11   12 1
    24   12   13 2
    25   13   14 1
    26   15   16 1
    27   15   37 1
    28   15   38 1
    29   16   17 am
    30   16   39 1
    31   17   18 2
    32   17   19 1
    33   19   24 ar
    34   19   20 ar
    35   20   21 ar
    36   20   40 1
    37   21   22 ar
    38   21   41 1
    39   22   23 ar
    40   22   26 1
    41   23   24 ar
    42   23   25 1
    43   24   42 1
    44   25   43 1
    45   25   44 1
    46   25   45 1
    47   26   46 1
    48   26   47 1
    49   26   48 1
    50   27   28 1
    51   27   49 1
    52   27   50 1
    53   28   51 1
    54   28   52 1
    55   28   53 1
@<TRIPOS>MOLECULE
ZINC40124136
   49    51     0     0     0
SMALL
USER_CHARGES

@<TRIPOS>ATOM
      1 C1         -0.0163    1.4490    0.6966 C.3       1 <0>        -0.1510
      2 C2          0.0437   -0.0736    0.5591 C.3       1 <0>        -0.1227
      3 C3          0.5095   -0.6871    1.8810 C.3       1 <0>        -0.1178
      4 C4          0.5695   -2.2097    1.7434 C.3       1 <0>         0.0567
      5 O1          1.0045   -2.7828    2.9781 O.3       1 <0>        -0.3136
      6 C5          1.1122   -4.1346    3.0258 C.ar      1 <0>         0.1417
      7 C6          0.8097   -4.8944    1.9009 C.ar      1 <0>        -0.2233
      8 C7          0.9180   -6.2658    1.9448 C.ar      1 <0>        -0.0155
      9 C8          1.3330   -6.8950    3.1227 C.ar      1 <0>        -0.1619
     10 C9          1.6363   -6.1275    4.2512 C.ar      1 <0>        -0.0361
     11 C10         1.5303   -4.7558    4.1972 C.ar      1 <0>        -0.1395
     12 C11         1.8624   -3.9271    5.4112 C.3       1 <0>        -0.0977
     13 C12         1.4502   -8.3656    3.1745 C.2       1 <0>         0.5218
     14 O2          1.9083   -8.9050    4.1646 O.2       1 <0>        -0.4803
     15 C13         1.0147   -9.1765    2.0330 C.2       1 <0>        -0.4993
     16 C14        -0.2613   -9.4747    1.6950 C.2       1 <0>         0.2543
     17 C15        -0.2578  -10.3148    0.4790 C.2       1 <0>         0.5116
     18 O3         -1.2503  -10.7466   -0.0730 O.2       1 <0>        -0.5394
     19 N1          1.0068  -10.5308    0.0738 N.am      1 <0>        -0.7254
     20 C16         1.9037   -9.8346    1.0038 C.3       1 <0>         0.2562
     21 H1          2.4851   -9.0804    0.4736 H         1 <0>         0.0821
     22 C17         2.8234  -10.8247    1.6707 C.ar      1 <0>        -0.0392
     23 C18         2.4540  -12.1532    1.7699 C.ar      1 <0>        -0.1027
     24 C19         3.2977  -13.0615    2.3811 C.ar      1 <0>        -0.1055
     25 C20         4.5113  -12.6420    2.8936 C.ar      1 <0>        -0.1282
     26 C21         4.8814  -11.3141    2.7950 C.ar      1 <0>        -0.0905
     27 C22         4.0396  -10.4056    2.1786 C.ar      1 <0>        -0.0769
     28 Br1         4.5485   -8.5899    2.0369 Br        1 <0>        -0.0524
     29 O4         -1.3650   -9.0684    2.3639 O.3       1 <0>        -0.6595
     30 H2          0.9740    1.8307    0.9454 H         1 <0>         0.0547
     31 H3         -0.3481    1.8861   -0.2451 H         1 <0>         0.0555
     32 H4         -0.7174    1.7151    1.4877 H         1 <0>         0.0552
     33 H5         -0.9465   -0.4552    0.3103 H         1 <0>         0.0655
     34 H6          0.7449   -0.3396   -0.2320 H         1 <0>         0.0646
     35 H7          1.4997   -0.3055    2.1297 H         1 <0>         0.0718
     36 H8         -0.1916   -0.4211    2.6720 H         1 <0>         0.0727
     37 H9         -0.4207   -2.5914    1.4947 H         1 <0>         0.0627
     38 H10         1.2706   -2.4757    0.9524 H         1 <0>         0.0611
     39 H11         0.4888   -4.4076    0.9918 H         1 <0>         0.1257
     40 H12         0.6825   -6.8551    1.0710 H         1 <0>         0.1338
     41 H13         1.9568   -6.6096    5.1629 H         1 <0>         0.1337
     42 H14         0.9659   -3.7944    6.0168 H         1 <0>         0.0633
     43 H15         2.6266   -4.4347    5.9997 H         1 <0>         0.0621
     44 H16         2.2348   -2.9527    5.0951 H         1 <0>         0.0650
     45 H17         1.2777  -11.0510   -0.6989 H         1 <0>         0.4062
     46 H18         1.5059  -12.4813    1.3700 H         1 <0>         0.1265
     47 H19         3.0086  -14.0992    2.4587 H         1 <0>         0.1229
     48 H20         5.1701  -13.3520    3.3715 H         1 <0>         0.1244
     49 H21         5.8294  -10.9865    3.1953 H         1 <0>         0.1266
@<TRIPOS>BOND
     1    1    2 1
     2    1   30 1
     3    1   31 1
     4    1   32 1
     5    2    3 1
     6    2   33 1
     7    2   34 1
     8    3    4 1
     9    3   35 1
    10    3   36 1
    11    4    5 1
    12    4   37 1
    13    4   38 1
    14    5    6 1
    15    6   11 ar
    16    6    7 ar
    17    7    8 ar
    18    7   39 1
    19    8    9 ar
    20    8   40 1
    21    9   10 ar
    22    9   13 1
    23   10   11 ar
    24   10   41 1
    25   11   12 1
    26   12   42 1
    27   12   43 1
    28   12   44 1
    29   13   14 2
    30   13   15 1
    31   15   20 1
    32   15   16 2
    33   16   17 1
    34   16   29 1
    35   17   18 2
    36   17   19 am
    37   19   20 1
    38   19   45 1
    39   20   21 1
    40   20   22 1
    41   22   27 ar
    42   22   23 ar
    43   23   24 ar
    44   23   46 1
    45   24   25 ar
    46   24   47 1
    47   25   26 ar
    48   25   48 1
    49   26   27 ar
    50   26   49 1
    51   27   28 1
@<TRIPOS>MOLECULE
ZINC00903753
   55    57     0     0     0
SMALL
USER_CHARGES

@<TRIPOS>ATOM
      1 C1          0.4767    0.2817   -1.8053 C.3       1 <0>        -0.1550
      2 C2         -0.3820    0.8091   -0.6540 C.3       1 <0>        -0.1063
      3 C3         -1.6182   -0.0777   -0.4919 C.3       1 <0>         0.0307
      4 C4         -1.1795   -1.5324   -0.3562 C.3       1 <0>        -0.0709
      5 C5         -2.3459   -2.4090    0.0133 C.ar      1 <0>        -0.0344
      6 C6         -2.4297   -3.6945   -0.4830 C.ar      1 <0>        -0.1357
      7 C7         -3.4920   -4.5070   -0.1292 C.ar      1 <0>        -0.1074
      8 C8         -4.4765   -4.0407    0.7243 C.ar      1 <0>        -0.1311
      9 C9         -4.4084   -2.7553    1.2222 C.ar      1 <0>        -0.0869
     10 C10        -3.3446   -1.9302    0.8606 C.ar      1 <0>        -0.0823
     11 C11        -3.2803   -0.5330    1.3464 C.2       1 <0>         0.3778
     12 C12        -2.3863    0.3588    0.7274 C.2       1 <0>        -0.3500
     13 C13        -2.2153    1.6142    1.2299 C.2       1 <0>         0.4560
     14 O1         -2.9857    2.0428    2.2504 O.3       1 <0>        -0.6164
     15 O2         -1.2756    2.4278    0.7067 O.3       1 <0>        -0.3290
     16 C14        -1.0748    3.6866    1.3524 C.3       1 <0>         0.0550
     17 C15         0.0216    4.4651    0.6225 C.3       1 <0>        -0.1470
     18 N1         -4.0553   -0.1281    2.3508 N.2       1 <0>        -0.5759
     19 C16        -4.6984   -1.0265    3.1028 C.2       1 <0>         0.5346
     20 S1         -3.8111   -2.1212    4.0750 S.2       1 <0>        -0.6229
     21 N2         -6.0454   -1.0707    3.0957 N.am      1 <0>        -0.6446
     22 C17        -6.6939   -1.9767    3.8540 C.2       1 <0>         0.5198
     23 O3         -6.0640   -2.7538    4.5442 O.2       1 <0>        -0.4103
     24 C18        -8.1709   -2.0252    3.8463 C.ar      1 <0>        -0.1291
     25 C19        -8.8974   -1.1378    3.0502 C.ar      1 <0>        -0.0903
     26 C20       -10.2759   -1.1887    3.0473 C.ar      1 <0>        -0.1258
     27 C21       -10.9387   -2.1166    3.8310 C.ar      1 <0>        -0.0992
     28 C22       -10.2248   -2.9988    4.6226 C.ar      1 <0>        -0.1276
     29 C23        -8.8458   -2.9624    4.6306 C.ar      1 <0>        -0.0593
     30 C24        -2.5085    0.0669   -1.7278 C.3       1 <0>        -0.1338
     31 H1          1.3117    0.9611   -1.9765 H         1 <0>         0.0437
     32 H2          0.8589   -0.7067   -1.5503 H         1 <0>         0.0490
     33 H3         -0.1288    0.2151   -2.7092 H         1 <0>         0.0513
     34 H4          0.1987    0.7951    0.2684 H         1 <0>         0.0596
     35 H5         -0.6937    1.8307   -0.8715 H         1 <0>         0.0900
     36 H6         -0.7621   -1.8714   -1.3043 H         1 <0>         0.0707
     37 H7         -0.4158   -1.6062    0.4180 H         1 <0>         0.0761
     38 H8         -1.6650   -4.0663   -1.1489 H         1 <0>         0.1199
     39 H9         -3.5535   -5.5112   -0.5217 H         1 <0>         0.1164
     40 H10        -5.2993   -4.6833    1.0008 H         1 <0>         0.1149
     41 H11        -5.1757   -2.3904    1.8888 H         1 <0>         0.1253
     42 H12        -2.0026    4.2584    1.3302 H         1 <0>         0.0538
     43 H13        -0.7751    3.5205    2.3871 H         1 <0>         0.0535
     44 H14         0.1748    5.4253    1.1151 H         1 <0>         0.0654
     45 H15         0.9494    3.8933    0.6448 H         1 <0>         0.0604
     46 H16        -0.2781    4.6312   -0.4122 H         1 <0>         0.0591
     47 H17        -6.5481   -0.4504    2.5448 H         1 <0>         0.4037
     48 H18        -8.3813   -0.4128    2.4383 H         1 <0>         0.1248
     49 H19       -10.8391   -0.5026    2.4322 H         1 <0>         0.1281
     50 H20       -12.0181   -2.1523    3.8251 H         1 <0>         0.1255
     51 H21       -10.7482   -3.7204    5.2323 H         1 <0>         0.1290
     52 H22        -8.2896   -3.6545    5.2455 H         1 <0>         0.1380
     53 H23        -1.9526   -0.2396   -2.6139 H         1 <0>         0.0452
     54 H24        -3.3905   -0.5637   -1.6160 H         1 <0>         0.0452
     55 H25        -2.8165    1.1070   -1.8339 H         1 <0>         0.0488
@<TRIPOS>BOND
     1    1    2 1
     2    1   31 1
     3    1   32 1
     4    1   33 1
     5    2    3 1
     6    2   34 1
     7    2   35 1
     8    3   12 1
     9    3    4 1
    10    3   30 1
    11    4    5 1
    12    4   36 1
    13    4   37 1
    14    5   10 ar
    15    5    6 ar
    16    6    7 ar
    17    6   38 1
    18    7    8 ar
    19    7   39 1
    20    8    9 ar
    21    8   40 1
    22    9   10 ar
    23    9   41 1
    24   10   11 1
    25   11   12 1
    26   11   18 2
    27   12   13 2
    28   13   14 1
    29   13   15 1
    30   15   16 1
    31   16   17 1
    32   16   42 1
    33   16   43 1
    34   17   44 1
    35   17   45 1
    36   17   46 1
    37   18   19 1
    38   19   20 2
    39   19   21 1
    40   21   22 am
    41   21   47 1
    42   22   23 2
    43   22   24 1
    44   24   29 ar
    45   24   25 ar
    46   25   26 ar
    47   25   48 1
    48   26   27 ar
    49   26   49 1
    50   27   28 ar
    51   27   50 1
    52   28   29 ar
    53   28   51 1
    54   29   52 1
    55   30   53 1
    56   30   54 1
    57   30   55 1
@<TRIPOS>MOLECULE
ZINC10013773
   55    59     0     0     0
SMALL
USER_CHARGES

@<TRIPOS>ATOM
      1 C1         -0.0179    1.5019    0.0199 C.3       1 <0>        -0.0931
      2 C2          0.0023   -0.0049    0.0217 C.2       1 <0>         0.2641
      3 C3         -1.1842   -0.6724    0.0202 C.2       1 <0>        -0.3716
      4 C4         -1.1332   -2.1899    0.0219 C.3       1 <0>         0.1240
      5 H1         -1.6620   -2.5499   -0.8605 H         1 <0>         0.0338
      6 C5          0.2550   -2.8017    0.0260 C.2       1 <0>        -0.3969
      7 C6          0.4050   -4.1375    0.0307 C.2       1 <0>         0.3297
      8 C7          1.7715   -4.7701    0.0337 C.3       1 <0>        -0.1176
      9 C8          2.7590   -3.8367    0.7402 C.3       1 <0>        -0.0406
     10 H2          2.4564   -3.7040    1.7790 H         1 <0>         0.0820
     11 C9          2.7561   -2.4813    0.0280 C.3       1 <0>        -0.0672
     12 C10         1.3524   -1.9248    0.0259 C.2       1 <0>         0.2909
     13 N1          1.1749   -0.6240    0.0191 N.2       1 <0>        -0.6387
     14 C11         4.1419   -4.4333    0.6896 C.ar      1 <0>        -0.0643
     15 C12         4.7425   -4.6835   -0.5300 C.ar      1 <0>        -0.1132
     16 C13         6.0111   -5.2308   -0.5765 C.ar      1 <0>        -0.1197
     17 C14         6.6792   -5.5275    0.5968 C.ar      1 <0>        -0.1302
     18 C15         6.0789   -5.2765    1.8165 C.ar      1 <0>        -0.1204
     19 C16         4.8121   -4.7252    1.8629 C.ar      1 <0>        -0.1155
     20 O1         -0.6879   -4.9252    0.0332 O.3       1 <0>        -0.6251
     21 C17        -1.8660   -2.6849    1.2421 C.2       1 <0>        -0.0760
     22 C18        -2.9660   -3.5119    1.1123 C.2       1 <0>        -0.1167
     23 C19        -3.6026   -3.9394    2.2300 C.2       1 <0>        -0.1877
     24 S1         -2.6416   -3.1664    3.5208 S.3       1 <0>        -0.0305
     25 C20        -1.4531   -2.3304    2.4835 C.2       1 <0>        -0.1596
     26 C21        -2.4143    0.0195    0.0177 C.2       1 <0>         0.5840
     27 O2         -2.4280    1.2377    0.0168 O.2       1 <0>        -0.5583
     28 N2         -3.5738   -0.6675    0.0163 N.am      1 <0>        -0.6750
     29 C22        -4.7909    0.0137    0.1321 C.ar      1 <0>         0.1481
     30 C23        -4.8360    1.2584    0.7453 C.ar      1 <0>        -0.1122
     31 C24        -6.0386    1.9287    0.8578 C.ar      1 <0>        -0.1084
     32 C25        -7.1979    1.3620    0.3605 C.ar      1 <0>        -0.1300
     33 C26        -7.1584    0.1223   -0.2508 C.ar      1 <0>        -0.1329
     34 C27        -5.9571   -0.5520   -0.3720 C.ar      1 <0>         0.0474
     35 F1         -5.9173   -1.7606   -0.9746 F         1 <0>        -0.1415
     36 H3          1.0049    1.8790    0.0166 H         1 <0>         0.0507
     37 H4         -0.5390    1.8573   -0.8690 H         1 <0>         0.0752
     38 H5         -0.5340    1.8595    0.9109 H         1 <0>         0.0746
     39 H6          1.7303   -5.7230    0.5613 H         1 <0>         0.0761
     40 H7          2.0982   -4.9356   -0.9929 H         1 <0>         0.0804
     41 H8          3.4198   -1.7933    0.5519 H         1 <0>         0.0823
     42 H9          3.0991   -2.6087   -0.9987 H         1 <0>         0.0828
     43 H10         4.2206   -4.4517   -1.4467 H         1 <0>         0.1226
     44 H11         6.4800   -5.4268   -1.5294 H         1 <0>         0.1189
     45 H12         7.6700   -5.9557    0.5605 H         1 <0>         0.1168
     46 H13         6.6007   -5.5086    2.7331 H         1 <0>         0.1184
     47 H14         4.3446   -4.5257    2.8158 H         1 <0>         0.1210
     48 H15        -3.3132   -3.8127    0.1349 H         1 <0>         0.1225
     49 H16        -4.4670   -4.5809    2.3171 H         1 <0>         0.1738
     50 H17        -0.6216   -1.7039    2.7706 H         1 <0>         0.1686
     51 H18        -3.5648   -1.6340   -0.0649 H         1 <0>         0.4126
     52 H19        -3.9316    1.7022    1.1345 H         1 <0>         0.1569
     53 H20        -6.0737    2.8968    1.3351 H         1 <0>         0.1268
     54 H21        -8.1364    1.8888    0.4501 H         1 <0>         0.1262
     55 H22        -8.0656   -0.3177   -0.6377 H         1 <0>         0.1318
@<TRIPOS>BOND
     1    1    2 1
     2    1   36 1
     3    1   37 1
     4    1   38 1
     5    2   13 1
     6    2    3 2
     7    3    4 1
     8    3   26 1
     9    4    5 1
    10    4    6 1
    11    4   21 1
    12    6   12 1
    13    6    7 2
    14    7    8 1
    15    7   20 1
    16    8    9 1
    17    8   39 1
    18    8   40 1
    19    9   10 1
    20    9   11 1
    21    9   14 1
    22   11   12 1
    23   11   41 1
    24   11   42 1
    25   12   13 2
    26   14   19 ar
    27   14   15 ar
    28   15   16 ar
    29   15   43 1
    30   16   17 ar
    31   16   44 1
    32   17   18 ar
    33   17   45 1
    34   18   19 ar
    35   18   46 1
    36   19   47 1
    37   21   25 2
    38   21   22 1
    39   22   23 2
    40   22   48 1
    41   23   24 1
    42   23   49 1
    43   24   25 1
    44   25   50 1
    45   26   27 2
    46   26   28 am
    47   28   29 1
    48   28   51 1
    49   29   34 ar
    50   29   30 ar
    51   30   31 ar
    52   30   52 1
    53   31   32 ar
    54   31   53 1
    55   32   33 ar
    56   32   54 1
    57   33   34 ar
    58   33   55 1
    59   34   35 1
@<TRIPOS>MOLECULE
ZINC20847585
   51    54     0     0     0
SMALL
USER_CHARGES
(5R)-5-(4-dimethylaminophenyl)-3-(indan-2-ylamino)cyclohex-2-en-1-one
@<TRIPOS>ATOM
      1 C1          2.0140    8.4772    0.7782 C.3       1 <0>         0.0896
      2 N1          1.3947    7.6866   -0.2884 N.pl3     1 <0>        -0.6427
      3 C2          0.7685    8.3590   -1.4294 C.3       1 <0>         0.0894
      4 C3          1.4012    6.2916   -0.2173 C.ar      1 <0>         0.2003
      5 C4          1.9945    5.6525    0.8639 C.ar      1 <0>        -0.1992
      6 C5          1.9996    4.2730    0.9308 C.ar      1 <0>        -0.0695
      7 C6          1.4149    3.5282   -0.0771 C.ar      1 <0>        -0.1163
      8 C7          0.8284    4.1612   -1.1576 C.ar      1 <0>        -0.0644
      9 C8          0.8148    5.5404   -1.2280 C.ar      1 <0>        -0.1977
     10 C9          1.4224    2.0232   -0.0007 C.3       1 <0>        -0.0285
     11 H1          1.9421    1.7277    0.9226 H         1 <0>         0.0737
     12 C10         2.1457    1.4510   -1.2234 C.3       1 <0>        -0.0531
     13 C11         2.0911   -0.0527   -1.1799 C.2       1 <0>         0.2474
     14 C12         1.0596   -0.6981   -0.5940 C.2       1 <0>        -0.5431
     15 C13         0.0021   -0.0041    0.0020 C.2       1 <0>         0.3791
     16 O1         -0.9089   -0.6215    0.5176 O.3       1 <0>        -0.5997
     17 C14        -0.0184    1.5027    0.0103 C.3       1 <0>        -0.1462
     18 N2          3.1001   -0.7755   -1.7421 N.2       1 <0>        -0.7041
     19 C15         3.0598   -2.2395   -1.7076 C.3       1 <0>         0.0916
     20 C16         3.7327   -2.7769   -0.4267 C.3       1 <0>        -0.0828
     21 C17         4.4201   -4.0601   -0.8524 C.ar      1 <0>        -0.0802
     22 C18         4.9018   -5.1132   -0.0927 C.ar      1 <0>        -0.1149
     23 C19         5.4969   -6.1978   -0.7064 C.ar      1 <0>        -0.1297
     24 C20         5.6127   -6.2335   -2.0836 C.ar      1 <0>        -0.1314
     25 C21         5.1329   -5.1844   -2.8429 C.ar      1 <0>        -0.1146
     26 C22         4.5358   -4.0958   -2.2293 C.ar      1 <0>        -0.0840
     27 C23         3.9388   -2.8391   -2.8257 C.3       1 <0>        -0.0641
     28 H2          2.4277    7.8022    1.5419 H         1 <0>         0.0792
     29 H3          1.2571    9.1302    1.2372 H         1 <0>         0.0493
     30 H4          2.8221    9.0928    0.3563 H         1 <0>         0.0496
     31 H5          0.3615    7.6061   -2.1204 H         1 <0>         0.0798
     32 H6          1.5194    8.9692   -1.9527 H         1 <0>         0.0497
     33 H7         -0.0456    9.0066   -1.0717 H         1 <0>         0.0494
     34 H8          2.4510    6.2336    1.6515 H         1 <0>         0.1191
     35 H9          2.4611    3.7755    1.7709 H         1 <0>         0.1196
     36 H10         0.3768    3.5764   -1.9453 H         1 <0>         0.1217
     37 H11         0.3526    6.0342   -2.0699 H         1 <0>         0.1196
     38 H12         1.6554    1.8095   -2.1405 H         1 <0>         0.0657
     39 H13         3.1952    1.7804   -1.2160 H         1 <0>         0.0669
     40 H14         1.0653   -1.7981   -0.5934 H         1 <0>         0.0882
     41 H15        -0.5308    1.8610    0.9153 H         1 <0>         0.0643
     42 H16        -0.5480    1.8707   -0.8808 H         1 <0>         0.0722
     43 H17         1.9856   -2.4601   -1.7942 H         1 <0>         0.0535
     44 H18         4.4537   -2.0352   -0.0525 H         1 <0>         0.0785
     45 H19         2.9661   -2.9623    0.3401 H         1 <0>         0.0632
     46 H20         4.8118   -5.0860    0.9832 H         1 <0>         0.1147
     47 H21         5.8713   -7.0175   -0.1111 H         1 <0>         0.1165
     48 H22         6.0775   -7.0811   -2.5652 H         1 <0>         0.1164
     49 H23         5.2233   -5.2132   -3.9187 H         1 <0>         0.1146
     50 H24         3.3137   -3.0648   -3.7022 H         1 <0>         0.0588
     51 H25         4.7179   -2.1155   -3.1075 H         1 <0>         0.0844
@<TRIPOS>BOND
     1    1    2 1
     2    1   28 1
     3    1   29 1
     4    1   30 1
     5    2    3 1
     6    2    4 1
     7    3   31 1
     8    3   32 1
     9    3   33 1
    10    4    9 ar
    11    4    5 ar
    12    5    6 ar
    13    5   34 1
    14    6    7 ar
    15    6   35 1
    16    7    8 ar
    17    7   10 1
    18    8    9 ar
    19    8   36 1
    20    9   37 1
    21   10   11 1
    22   10   17 1
    23   10   12 1
    24   12   13 1
    25   12   38 1
    26   12   39 1
    27   13   14 1
    28   13   18 2
    29   14   15 2
    30   14   40 1
    31   15   16 1
    32   15   17 1
    33   17   41 1
    34   17   42 1
    35   18   19 1
    36   19   27 1
    37   19   20 1
    38   19   43 1
    39   20   21 1
    40   20   44 1
    41   20   45 1
    42   21   26 ar
    43   21   22 ar
    44   22   23 ar
    45   22   46 1
    46   23   24 ar
    47   23   47 1
    48   24   25 ar
    49   24   48 1
    50   25   26 ar
    51   25   49 1
    52   26   27 1
    53   27   50 1
    54   27   51 1
@<TRIPOS>MOLECULE
ZINC35233052
   25    26     0     0     0
SMALL
USER_CHARGES

@<TRIPOS>ATOM
      1 C1         -0.0184    1.5028    0.0103 C.3       1 <0>        -0.1164
      2 C2          0.0021   -0.0041    0.0020 C.ar      1 <0>        -0.0197
      3 C3          0.0057   -0.6874   -1.1983 C.ar      1 <0>        -0.1749
      4 C4          0.0245   -2.0761   -1.2052 C.ar      1 <0>         0.2952
      5 C5          0.0397   -2.7738   -0.0040 C.ar      1 <0>        -0.2638
      6 C6          0.0360   -2.0852    1.1929 C.ar      1 <0>        -0.0306
      7 C7          0.0229   -0.7014    1.1966 C.ar      1 <0>        -0.1860
      8 Br1         0.0256    0.2379    2.8377 Br        1 <0>        -0.0957
      9 N1          0.0278   -2.7701   -2.4178 N.2       1 <0>        -1.0809
     10 S1          0.0503   -4.4260   -2.4241 S.o2      1 <0>         2.6344
     11 O1          1.3038   -4.8172   -1.8812 O.2       1 <0>        -1.0103
     12 O2         -1.1866   -4.8510   -1.8685 O.2       1 <0>        -1.0138
     13 C8          0.0487   -4.9406   -4.1093 C.2       1 <0>        -0.7204
     14 C9          1.0922   -5.1848   -4.9415 C.2       1 <0>         0.1586
     15 N2          0.8010   -5.5637   -6.1708 N.2       1 <0>        -0.5231
     16 C10        -0.4417   -5.6970   -6.5659 C.2       1 <0>         0.0662
     17 S2         -1.3265   -5.2928   -5.1924 S.3       1 <0>         0.2956
     18 Cl1        -1.0317   -6.1799   -8.1255 Cl        1 <0>         0.0527
     19 H1          1.0042    1.8801    0.0026 H         1 <0>         0.0677
     20 H2         -0.5455    1.8639   -0.8728 H         1 <0>         0.0637
     21 H3         -0.5286    1.8543    0.9071 H         1 <0>         0.0687
     22 H4         -0.0064   -0.1424   -2.1307 H         1 <0>         0.1217
     23 H5          0.0540   -3.8537   -0.0062 H         1 <0>         0.1047
     24 H6          0.0474   -2.6271    2.1271 H         1 <0>         0.1137
     25 H7          2.1148   -5.0735   -4.6124 H         1 <0>         0.1928
@<TRIPOS>BOND
     1    1    2 1
     2    1   19 1
     3    1   20 1
     4    1   21 1
     5    2    7 ar
     6    2    3 ar
     7    3    4 ar
     8    3   22 1
     9    4    5 ar
    10    4    9 1
    11    5    6 ar
    12    5   23 1
    13    6    7 ar
    14    6   24 1
    15    7    8 1
    16    9   10 1
    17   10   11 2
    18   10   12 2
    19   10   13 1
    20   13   17 1
    21   13   14 2
    22   14   15 1
    23   14   25 1
    24   15   16 2
    25   16   17 1
    26   16   18 1
@<TRIPOS>MOLECULE
ZINC02019616
   44    47     0     0     0
SMALL
USER_CHARGES

@<TRIPOS>ATOM
      1 C1         -0.3168    1.0319    0.9247 C.ar      1 <0>        -0.1293
      2 C2          0.8166    1.7962    0.7193 C.ar      1 <0>        -0.1254
      3 C3          2.0401    1.1812    0.5302 C.ar      1 <0>        -0.0786
      4 C4          2.1302   -0.1981    0.5471 C.ar      1 <0>        -0.0447
      5 C5          0.9970   -0.9624    0.7534 C.ar      1 <0>        -0.1119
      6 C6         -0.2267   -0.3474    0.9411 C.ar      1 <0>        -0.1246
      7 C7          3.4639   -0.8686    0.3400 C.3       1 <0>        -0.4671
      8 H1          3.3237   -1.8404   -0.1334 H         1 <0>         0.0765
      9 O1          4.3118   -0.0394   -0.4766 O.3       1 <0>        -0.3660
     10 C8          5.6235   -0.5650   -0.6637 C.3       1 <0>         0.2459
     11 O2          6.4302   -0.4215    0.5027 O.3       1 <0>        -0.3565
     12 C9          6.0974   -1.3436    1.5573 C.3       1 <0>        -0.4749
     13 H2          6.7101   -1.1432    2.4362 H         1 <0>         0.1373
     14 P1          4.3236   -1.0707    1.9497 P.3       1 <0>         2.2646
     15 O3          4.1612    0.2080    2.8016 O.2       1 <0>        -1.0279
     16 O4          3.7518   -2.2901    2.7067 O.3       1 <0>        -1.0326
     17 C10         6.3112   -2.7607    1.0913 C.ar      1 <0>        -0.1074
     18 C11         6.8579   -3.0034   -0.1550 C.ar      1 <0>        -0.1390
     19 C12         7.0541   -4.3033   -0.5825 C.ar      1 <0>        -0.1304
     20 C13         6.7039   -5.3604    0.2365 C.ar      1 <0>        -0.1293
     21 C14         6.1580   -5.1178    1.4830 C.ar      1 <0>        -0.1183
     22 C15         5.9658   -3.8179    1.9123 C.ar      1 <0>        -0.0906
     23 C16         6.2832    0.1612   -1.8076 C.ar      1 <0>        -0.0709
     24 C17         5.6031    1.1630   -2.4745 C.ar      1 <0>        -0.0832
     25 C18         6.2082    1.8291   -3.5237 C.ar      1 <0>        -0.1253
     26 C19         7.4937    1.4938   -3.9058 C.ar      1 <0>        -0.1162
     27 C20         8.1742    0.4926   -3.2383 C.ar      1 <0>        -0.1252
     28 C21         7.5706   -0.1706   -2.1863 C.ar      1 <0>        -0.0986
     29 H3         -1.2719    1.5125    1.0769 H         1 <0>         0.1167
     30 H4          0.7461    2.8738    0.7061 H         1 <0>         0.1189
     31 H5          2.9254    1.7783    0.3690 H         1 <0>         0.1264
     32 H6          1.0674   -2.0400    0.7659 H         1 <0>         0.1222
     33 H7         -1.1121   -0.9445    1.1019 H         1 <0>         0.1198
     34 H8          5.5485   -1.6231   -0.9144 H         1 <0>         0.0750
     35 H9          7.1315   -2.1774   -0.7947 H         1 <0>         0.1244
     36 H10         7.4806   -4.4929   -1.5564 H         1 <0>         0.1167
     37 H11         6.8565   -6.3760   -0.0978 H         1 <0>         0.1180
     38 H12         5.8840   -5.9437    2.1227 H         1 <0>         0.1253
     39 H13         5.5427   -3.6282    2.8877 H         1 <0>         0.1556
     40 H14         4.5988    1.4250   -2.1759 H         1 <0>         0.1361
     41 H15         5.6766    2.6113   -4.0452 H         1 <0>         0.1245
     42 H16         7.9663    2.0137   -4.7260 H         1 <0>         0.1219
     43 H17         9.1784    0.2304   -3.5371 H         1 <0>         0.1238
     44 H18         8.1037   -0.9502   -1.6624 H         1 <0>         0.1240
@<TRIPOS>BOND
     1    1    6 ar
     2    1    2 ar
     3    1   29 1
     4    2    3 ar
     5    2   30 1
     6    3    4 ar
     7    3   31 1
     8    4    5 ar
     9    4    7 1
    10    5    6 ar
    11    5   32 1
    12    6   33 1
    13    7    8 1
    14    7   14 1
    15    7    9 1
    16    9   10 1
    17   10   11 1
    18   10   23 1
    19   10   34 1
    20   11   12 1
    21   12   13 1
    22   12   14 1
    23   12   17 1
    24   14   15 2
    25   14   16 1
    26   17   22 ar
    27   17   18 ar
    28   18   19 ar
    29   18   35 1
    30   19   20 ar
    31   19   36 1
    32   20   21 ar
    33   20   37 1
    34   21   22 ar
    35   21   38 1
    36   22   39 1
    37   23   28 ar
    38   23   24 ar
    39   24   25 ar
    40   24   40 1
    41   25   26 ar
    42   25   41 1
    43   26   27 ar
    44   26   42 1
    45   27   28 ar
    46   27   43 1
    47   28   44 1
@<TRIPOS>MOLECULE
ZINC44374416
   45    48     0     0     0
SMALL
USER_CHARGES

@<TRIPOS>ATOM
      1 C1         -0.0187    1.5258    0.0104 C.3       1 <0>        -0.1358
      2 C2          0.0021   -0.0041    0.0020 C.3       1 <0>        -0.0376
      3 C3          0.8061   -0.5115   -1.1597 C.ar      1 <0>        -0.1539
      4 C4          0.6017   -0.3299   -2.5156 C.ar      1 <0>        -0.0522
      5 C5          1.5162   -0.9203   -3.3791 C.ar      1 <0>        -0.1788
      6 C6          2.5822   -1.6565   -2.9038 C.ar      1 <0>        -0.0771
      7 C7          2.7946   -1.8440   -1.5480 C.ar      1 <0>        -0.1821
      8 C8          1.8811   -1.2540   -0.6674 C.ar      1 <0>         0.2029
      9 N1          1.8835   -1.2979    0.7160 N.pl3     1 <0>        -0.6033
     10 C9          0.7421   -0.5387    1.2408 C.3       1 <0>         0.3910
     11 C10        -0.1648   -1.4476    2.0232 C.2       1 <0>        -0.2068
     12 C11        -0.9013   -0.9637    3.0192 C.2       1 <0>        -0.0623
     13 C12        -0.7761    0.4710    3.3520 C.ar      1 <0>        -0.1440
     14 C13        -1.6925    1.1024    4.1866 C.ar      1 <0>        -0.0608
     15 C14        -1.5492    2.4484    4.4618 C.ar      1 <0>        -0.0453
     16 C15        -0.5025    3.1666    3.9101 C.ar      1 <0>        -0.0732
     17 C16         0.4167    2.5455    3.0839 C.ar      1 <0>        -0.1423
     18 C17         0.2916    1.1964    2.8070 C.ar      1 <0>         0.1262
     19 O1          1.2032    0.5497    2.0359 O.3       1 <0>        -0.3194
     20 C18        -2.5369    3.1381    5.3673 C.3       1 <0>        -0.1564
     21 C19        -2.0564    3.0520    6.7930 C.2       1 <0>         0.4955
     22 O2         -1.0089    2.4834    7.0500 O.co2     1 <0>        -0.6867
     23 O3         -2.7150    3.5510    7.6895 O.co2     1 <0>        -0.7023
     24 C20         2.8764   -1.9985    1.5343 C.3       1 <0>         0.1088
     25 C21        -1.4237   -0.5567   -0.0490 C.3       1 <0>        -0.1293
     26 H1          1.0039    1.9031    0.0027 H         1 <0>         0.0616
     27 H2         -0.5459    1.8868   -0.8726 H         1 <0>         0.0586
     28 H3         -0.5289    1.8773    0.9072 H         1 <0>         0.0703
     29 H4         -0.2327    0.2464   -2.8872 H         1 <0>         0.1261
     30 H5          1.3898   -0.8008   -4.4450 H         1 <0>         0.1158
     31 H6          3.2702   -2.0992   -3.6088 H         1 <0>         0.1166
     32 H7          3.6315   -2.4222   -1.1852 H         1 <0>         0.1236
     33 H8         -0.2186   -2.4973    1.7751 H         1 <0>         0.1276
     34 H9         -1.5744   -1.6031    3.5710 H         1 <0>         0.1322
     35 H10        -2.5109    0.5439    4.6164 H         1 <0>         0.1225
     36 H11        -0.4028    4.2201    4.1261 H         1 <0>         0.1247
     37 H12         1.2300    3.1128    2.6560 H         1 <0>         0.1255
     38 H13        -2.6268    4.1848    5.0767 H         1 <0>         0.0703
     39 H14        -3.5090    2.6524    5.2815 H         1 <0>         0.0693
     40 H15         3.6097   -2.4771    0.8852 H         1 <0>         0.0749
     41 H16         3.3794   -1.2841    2.1860 H         1 <0>         0.0612
     42 H17         2.3788   -2.7555    2.1404 H         1 <0>         0.0586
     43 H18        -1.9223   -0.1934   -0.9476 H         1 <0>         0.0601
     44 H19        -1.3908   -1.6460   -0.0669 H         1 <0>         0.0596
     45 H20        -1.9739   -0.2243    0.8313 H         1 <0>         0.0658
@<TRIPOS>BOND
     1    1    2 1
     2    1   26 1
     3    1   27 1
     4    1   28 1
     5    2   10 1
     6    2    3 1
     7    2   25 1
     8    3    8 ar
     9    3    4 ar
    10    4    5 ar
    11    4   29 1
    12    5    6 ar
    13    5   30 1
    14    6    7 ar
    15    6   31 1
    16    7    8 ar
    17    7   32 1
    18    8    9 1
    19    9   10 1
    20    9   24 1
    21   10   19 1
    22   10   11 1
    23   11   12 2
    24   11   33 1
    25   12   13 1
    26   12   34 1
    27   13   18 ar
    28   13   14 ar
    29   14   15 ar
    30   14   35 1
    31   15   16 ar
    32   15   20 1
    33   16   17 ar
    34   16   36 1
    35   17   18 ar
    36   17   37 1
    37   18   19 1
    38   20   21 1
    39   20   38 1
    40   20   39 1
    41   21   22 2
    42   21   23 1
    43   24   40 1
    44   24   41 1
    45   24   42 1
    46   25   43 1
    47   25   44 1
    48   25   45 1
@<TRIPOS>MOLECULE
ZINC07049158
   33    36     0     0     0
SMALL
USER_CHARGES

@<TRIPOS>ATOM
      1 C1         -0.0166    1.3741    0.0096 C.ar      1 <0>        -0.1600
      2 C2          1.1724    2.0872    0.0021 C.ar      1 <0>        -0.0852
      3 C3          2.3842    1.4307   -0.0135 C.ar      1 <0>        -0.1265
      4 C4          2.4241    0.0410   -0.0214 C.ar      1 <0>         0.0891
      5 C5          1.2197   -0.6784   -0.0133 C.ar      1 <0>        -0.1205
      6 C6          0.0021   -0.0041    0.0020 C.ar      1 <0>        -0.0444
      7 C7          1.6038   -2.0999   -0.0248 C.ar      1 <0>         0.1293
      8 C8          3.0045   -2.1126   -0.0389 C.ar      1 <0>        -0.1126
      9 O1          3.4490   -0.8393   -0.0363 O.3       1 <0>        -0.1765
     10 C9          3.6465   -3.3538   -0.0530 C.ar      1 <0>         0.4722
     11 O2          4.9999   -3.4308   -0.0665 O.3       1 <0>        -0.6679
     12 N1          2.9068   -4.4561   -0.0524 N.ar      1 <0>        -0.5714
     13 C10         1.5884   -4.3973   -0.0389 C.ar      1 <0>         0.3438
     14 N2          0.9396   -3.2515   -0.0251 N.ar      1 <0>        -0.5557
     15 C11         0.8006   -5.6820   -0.0390 C.3       1 <0>        -0.0261
     16 S1          0.5016   -6.2081    1.6711 S.3       1 <0>        -0.0647
     17 C12        -0.4169   -7.7023    1.5031 C.ar      1 <0>        -0.0750
     18 C13        -0.7270   -8.1905    0.2396 C.ar      1 <0>        -0.1255
     19 C14        -1.4470   -9.3618    0.1111 C.ar      1 <0>        -0.0870
     20 C15        -1.8598  -10.0493    1.2391 C.ar      1 <0>        -0.0502
     21 C16        -1.5525   -9.5655    2.4988 C.ar      1 <0>        -0.0900
     22 C17        -0.8278   -8.3978    2.6337 C.ar      1 <0>        -0.0928
     23 Cl1        -2.7653  -11.5211    1.0735 Cl        1 <0>        -0.0779
     24 H1         -0.9599    1.8999    0.0259 H         1 <0>         0.1266
     25 H2          1.1488    3.1669    0.0081 H         1 <0>         0.1311
     26 H3          3.3040    1.9966   -0.0199 H         1 <0>         0.1305
     27 H4         -0.9246   -0.5587    0.0076 H         1 <0>         0.1283
     28 H5         -0.1531   -5.5234   -0.5423 H         1 <0>         0.1074
     29 H6          1.3642   -6.4538   -0.5632 H         1 <0>         0.1098
     30 H7         -0.4055   -7.6543   -0.6410 H         1 <0>         0.1347
     31 H8         -1.6886   -9.7415   -0.8707 H         1 <0>         0.1345
     32 H9         -1.8763  -10.1040    3.3772 H         1 <0>         0.1356
     33 H10        -0.5842   -8.0234    3.6170 H         1 <0>         0.1369
@<TRIPOS>BOND
     1    1    6 ar
     2    1    2 ar
     3    1   24 1
     4    2    3 ar
     5    2   25 1
     6    3    4 ar
     7    3   26 1
     8    4    9 1
     9    4    5 ar
    10    5    6 ar
    11    5    7 1
    12    6   27 1
    13    7   14 ar
    14    7    8 ar
    15    8    9 1
    16    8   10 ar
    17   10   11 1
    18   10   12 ar
    19   12   13 ar
    20   13   14 ar
    21   13   15 1
    22   15   16 1
    23   15   28 1
    24   15   29 1
    25   16   17 1
    26   17   22 ar
    27   17   18 ar
    28   18   19 ar
    29   18   30 1
    30   19   20 ar
    31   19   31 1
    32   20   21 ar
    33   20   23 1
    34   21   22 ar
    35   21   32 1
    36   22   33 1
@<TRIPOS>MOLECULE
ZINC13590806
   44    49     0     0     0
SMALL
USER_CHARGES
(2-sulfanylphenyl)BLAHdione
@<TRIPOS>ATOM
      1 C1          0.1610    1.6054    4.4047 C.ar      1 <0>        -0.0594
      2 C2          0.6533    2.8975    4.4073 C.ar      1 <0>        -0.0593
      3 C3          0.2705    3.7981    3.4220 C.ar      1 <0>        -0.0714
      4 C4         -0.5988    3.3836    2.4534 C.ar      1 <0>        -0.0930
      5 C5         -1.0960    2.0825    2.4515 C.ar      1 <0>        -0.0937
      6 C6         -0.7232    1.1913    3.4172 C.ar      1 <0>        -0.0704
      7 C7         -2.0526    1.7759    1.3100 C.3       1 <0>         0.0160
      8 C8         -3.1187    2.8576    1.3840 C.ar      1 <0>        -0.0694
      9 C9         -4.4535    2.6384    1.4828 C.ar      1 <0>        -0.1051
     10 C10        -5.3184    3.7233    1.5407 C.ar      1 <0>        -0.1241
     11 C11        -4.8242    5.0146    1.5245 C.ar      1 <0>        -0.1230
     12 C12        -3.4565    5.2438    1.4501 C.ar      1 <0>        -0.1076
     13 C13        -2.6116    4.1720    1.3941 C.ar      1 <0>        -0.0691
     14 C14        -1.0961    4.2647    1.3104 C.3       1 <0>         0.0155
     15 C15        -0.7074    3.5050    0.0245 C.3       1 <0>        -0.1118
     16 H1         -1.0375    4.0479   -0.8612 H         1 <0>         0.1195
     17 C16        -1.2594    2.0686    0.0186 C.3       1 <0>        -0.1108
     18 H2         -1.8660    1.8865   -0.8685 H         1 <0>         0.1212
     19 C17        -0.0144    1.2081    0.0087 C.2       1 <0>         0.5466
     20 O1          0.0021   -0.0041    0.0020 O.2       1 <0>        -0.4809
     21 N1          1.0660    1.9991    0.0026 N.am      1 <0>        -0.4833
     22 C18         0.7935    3.3098    0.0111 C.2       1 <0>         0.5466
     23 O2          1.6177    4.1989    0.0089 O.2       1 <0>        -0.4807
     24 C19         2.3760    1.4955   -0.0115 C.ar      1 <0>         0.0581
     25 C20         3.0141    1.2517   -1.2178 C.ar      1 <0>        -0.0844
     26 C21         4.3042    0.7553   -1.2297 C.ar      1 <0>        -0.1844
     27 C22         4.9631    0.5011   -0.0404 C.ar      1 <0>        -0.0947
     28 C23         4.3355    0.7414    1.1668 C.ar      1 <0>        -0.1518
     29 C24         3.0418    1.2444    1.1882 C.ar      1 <0>         0.1232
     30 H3          0.4665    0.9134    5.1756 H         1 <0>         0.1027
     31 H4          1.3402    3.2083    5.1806 H         1 <0>         0.1026
     32 H5          0.6530    4.8081    3.4217 H         1 <0>         0.1049
     33 H6         -1.1095    0.1827    3.4130 H         1 <0>         0.1051
     34 H7         -2.4504    0.7618    1.3465 H         1 <0>         0.1091
     35 H8         -4.8365    1.6287    1.4953 H         1 <0>         0.1229
     36 H9         -6.3840    3.5574    1.5984 H         1 <0>         0.1187
     37 H10        -5.5064    5.8506    1.5696 H         1 <0>         0.1184
     38 H11        -3.0679    6.2514    1.4371 H         1 <0>         0.1244
     39 H12        -0.7150    5.2856    1.3352 H         1 <0>         0.1113
     40 H13         2.5031    1.4492   -2.1485 H         1 <0>         0.1031
     41 H14         4.7994    0.5657   -2.1706 H         1 <0>         0.1091
     42 H15         5.9712    0.1140   -0.0555 H         1 <0>         0.1066
     43 H16         4.8528    0.5418    2.0936 H         1 <0>         0.1129
     44 S1          2.2409    1.5583    2.7259 S.3       1 <0>        -0.8703
@<TRIPOS>BOND
     1    1    6 ar
     2    1    2 ar
     3    1   30 1
     4    2    3 ar
     5    2   31 1
     6    3    4 ar
     7    3   32 1
     8    4   14 1
     9    4    5 ar
    10    5    6 ar
    11    5    7 1
    12    6   33 1
    13    7   17 1
    14    7    8 1
    15    7   34 1
    16    8   13 ar
    17    8    9 ar
    18    9   10 ar
    19    9   35 1
    20   10   11 ar
    21   10   36 1
    22   11   12 ar
    23   11   37 1
    24   12   13 ar
    25   12   38 1
    26   13   14 1
    27   14   15 1
    28   14   39 1
    29   15   16 1
    30   15   22 1
    31   15   17 1
    32   17   18 1
    33   17   19 1
    34   19   20 2
    35   19   21 am
    36   21   22 am
    37   21   24 1
    38   22   23 2
    39   24   29 ar
    40   24   25 ar
    41   25   26 ar
    42   25   40 1
    43   26   27 ar
    44   26   41 1
    45   27   28 ar
    46   27   42 1
    47   28   29 ar
    48   28   43 1
    49   29   44 1
@<TRIPOS>MOLECULE
ZINC31720241
   27    28     0     0     0
SMALL
USER_CHARGES
3-cyano-N-(2,5-dibromophenyl)benzenesulfonamide
@<TRIPOS>ATOM
      1 C1          0.9693    1.8387    0.2788 C.ar      1 <0>        -0.1453
      2 C2         -0.2414    1.1774    0.2988 C.ar      1 <0>        -0.0383
      3 C3         -1.4315    1.9049    0.2391 C.ar      1 <0>        -0.0584
      4 C4         -1.3875    3.2991    0.1712 C.ar      1 <0>         0.0220
      5 C5         -0.1702    3.9473    0.1516 C.ar      1 <0>        -0.6591
      6 C6          1.0057    3.2197    0.2053 C.ar      1 <0>         0.0067
      7 S1         -0.1122    5.7058    0.0575 S.o2      1 <0>         2.5882
      8 O1         -1.3501    6.1810    0.5683 O.2       1 <0>        -1.0293
      9 O2          1.1390    6.1007    0.6032 O.2       1 <0>        -0.9842
     10 N1         -0.0767    6.1093   -1.5482 N.2       1 <0>        -1.0351
     11 C7         -1.1309    5.7360   -2.3859 C.ar      1 <0>         0.2678
     12 C8         -2.4330    5.7249   -1.9030 C.ar      1 <0>        -0.2127
     13 C9         -3.4734    5.3551   -2.7341 C.ar      1 <0>        -0.0361
     14 C10        -3.2187    4.9961   -4.0461 C.ar      1 <0>        -0.1700
     15 C11        -1.9236    5.0061   -4.5298 C.ar      1 <0>        -0.0597
     16 C12        -0.8794    5.3804   -3.7056 C.ar      1 <0>        -0.1207
     17 Br1         0.8907    5.4013   -4.3706 Br        1 <0>        -0.0608
     18 Br2        -5.2468    5.3401   -2.0779 Br        1 <0>        -0.0775
     19 C13        -2.6917    1.2249    0.2533 C.1       1 <0>         0.2615
     20 N2         -3.6914    0.6855    0.2646 N.1       1 <0>        -0.4231
     21 H1          1.8908    1.2770    0.3204 H         1 <0>         0.1362
     22 H2         -0.2684    0.0993    0.3559 H         1 <0>         0.1322
     23 H3         -2.3045    3.8682    0.1289 H         1 <0>         0.1416
     24 H4          1.9561    3.7323    0.1900 H         1 <0>         0.1433
     25 H5         -2.6323    6.0052   -0.8793 H         1 <0>         0.1639
     26 H6         -4.0335    4.7071   -4.6935 H         1 <0>         0.1220
     27 H7         -1.7283    4.7258   -5.5543 H         1 <0>         0.1249
@<TRIPOS>BOND
     1    1    6 ar
     2    1    2 ar
     3    1   21 1
     4    2    3 ar
     5    2   22 1
     6    3    4 ar
     7    3   19 1
     8    4    5 ar
     9    4   23 1
    10    5    6 ar
    11    5    7 1
    12    6   24 1
    13    7    8 2
    14    7    9 2
    15    7   10 1
    16   10   11 1
    17   11   16 ar
    18   11   12 ar
    19   12   13 ar
    20   12   25 1
    21   13   14 ar
    22   13   18 1
    23   14   15 ar
    24   14   26 1
    25   15   16 ar
    26   15   27 1
    27   16   17 1
    28   19   20 3
@<TRIPOS>MOLECULE
ZINC00755210
   39    42     0     0     0
SMALL
USER_CHARGES

@<TRIPOS>ATOM
      1 C1         -0.0840    1.4997    0.0929 C.3       1 <0>        -0.1021
      2 C2         -0.0330   -0.0057    0.0459 C.2       1 <0>         0.1144
      3 C3         -0.2171   -0.6333   -1.1334 C.2       1 <0>        -0.2687
      4 C4         -0.1725   -2.0388   -1.1971 C.2       1 <0>         0.3530
      5 O1         -0.3545   -2.6836   -2.3714 O.3       1 <0>        -0.6635
      6 C5          0.0656   -2.7557   -0.0142 C.2       1 <0>        -0.4687
      7 C6          0.1226   -4.2187   -0.0234 C.2       1 <0>         0.4478
      8 C7         -1.1882   -4.9133    0.0899 C.3       1 <0>        -0.1282
      9 C8         -1.2594   -6.1533   -0.7546 C.3       1 <0>        -0.0181
     10 H1         -0.9021   -5.9144   -1.7563 H         1 <0>         0.0968
     11 S1         -0.2920   -7.5119   -0.1108 S.3       1 <0>        -0.1061
     12 C9          1.3988   -7.1395   -0.3592 C.ar      1 <0>        -0.1534
     13 C10         2.2508   -8.2204   -0.6143 C.ar      1 <0>        -0.0853
     14 C11         3.5999   -8.0438   -0.8139 C.ar      1 <0>        -0.1312
     15 C12         4.1373   -6.7686   -0.7601 C.ar      1 <0>        -0.1134
     16 C13         3.3213   -5.6938   -0.5157 C.ar      1 <0>        -0.0978
     17 C14         1.9302   -5.8496   -0.3157 C.ar      1 <0>         0.2101
     18 N1          1.2616   -4.7119   -0.1298 N.2       1 <0>        -0.6159
     19 C15        -2.6984   -6.5910   -0.8486 C.2       1 <0>        -0.0922
     20 C16        -3.3260   -6.6789   -2.0770 C.2       1 <0>        -0.1355
     21 C17        -4.6212   -7.0759   -2.1265 C.2       1 <0>        -0.1744
     22 S2         -4.9925   -7.3406   -0.4004 S.3       1 <0>         0.0271
     23 C18        -3.3948   -6.9097    0.2698 C.2       1 <0>        -0.1500
     24 C19         0.2502   -2.0300    1.1898 C.2       1 <0>         0.5160
     25 O2          0.4587   -2.6223    2.2338 O.2       1 <0>        -0.5422
     26 O3          0.1995   -0.6870    1.1759 O.3       1 <0>        -0.2914
     27 H2          0.0885    1.8374    1.1148 H         1 <0>         0.0760
     28 H3          0.6862    1.9099   -0.5603 H         1 <0>         0.0851
     29 H4         -1.0637    1.8407   -0.2419 H         1 <0>         0.0854
     30 H5         -0.3990   -0.0577   -2.0289 H         1 <0>         0.1333
     31 H6         -1.3530   -5.1869    1.1320 H         1 <0>         0.0920
     32 H7         -1.9774   -4.2291   -0.2217 H         1 <0>         0.0990
     33 H8          1.8385   -9.2178   -0.6549 H         1 <0>         0.1200
     34 H9          4.2360   -8.8939   -1.0117 H         1 <0>         0.1230
     35 H10         5.1965   -6.6208   -0.9107 H         1 <0>         0.1229
     36 H11         3.7518   -4.7042   -0.4746 H         1 <0>         0.1263
     37 H12        -2.7926   -6.4347   -2.9837 H         1 <0>         0.1361
     38 H13        -5.2622   -7.1995   -2.9868 H         1 <0>         0.1861
     39 H14        -3.0683   -6.9035    1.2992 H         1 <0>         0.1879
@<TRIPOS>BOND
     1    1    2 1
     2    1   27 1
     3    1   28 1
     4    1   29 1
     5    2   26 1
     6    2    3 2
     7    3    4 1
     8    3   30 1
     9    4    5 1
    10    4    6 2
    11    6    7 1
    12    6   24 1
    13    7   18 2
    14    7    8 1
    15    8    9 1
    16    8   31 1
    17    8   32 1
    18    9   10 1
    19    9   11 1
    20    9   19 1
    21   11   12 1
    22   12   17 ar
    23   12   13 ar
    24   13   14 ar
    25   13   33 1
    26   14   15 ar
    27   14   34 1
    28   15   16 ar
    29   15   35 1
    30   16   17 ar
    31   16   36 1
    32   17   18 1
    33   19   23 2
    34   19   20 1
    35   20   21 2
    36   20   37 1
    37   21   22 1
    38   21   38 1
    39   22   23 1
    40   23   39 1
    41   24   25 2
    42   24   26 1
@<TRIPOS>MOLECULE
ZINC48430236
   27    28     0     0     0
SMALL
USER_CHARGES

@<TRIPOS>ATOM
      1 C1         -0.0167    1.3782    0.0096 C.ar      1 <0>        -0.0185
      2 C2          1.1708    2.0857    0.0021 C.ar      1 <0>        -0.1114
      3 C3          2.3776    1.4106   -0.0131 C.ar      1 <0>        -0.0630
      4 C4          2.3961    0.0278   -0.0207 C.ar      1 <0>        -0.1114
      5 C5          1.2083   -0.6792   -0.0132 C.ar      1 <0>        -0.0185
      6 C6          0.0021   -0.0041    0.0020 C.ar      1 <0>        -0.5992
      7 S1         -1.5118   -0.9056    0.0122 S.o2      1 <0>         2.6038
      8 O1         -1.2182   -2.1863    0.5533 O.2       1 <0>        -1.0207
      9 O2         -2.4923   -0.0463    0.5775 O.2       1 <0>        -1.0208
     10 N1         -1.9482   -1.1476   -1.5668 N.2       1 <0>        -1.0810
     11 C7         -3.1223   -1.8433   -1.8686 C.ar      1 <0>         0.2832
     12 C8         -3.9266   -2.3271   -0.8426 C.ar      1 <0>        -0.2282
     13 C9         -5.0885   -3.0155   -1.1346 C.ar      1 <0>        -0.0487
     14 C10        -5.4590   -3.2285   -2.4484 C.ar      1 <0>        -0.0949
     15 C11        -4.6575   -2.7463   -3.4866 C.ar      1 <0>         0.0144
     16 C12        -3.4872   -2.0456   -3.1900 C.ar      1 <0>        -0.1178
     17 C13        -5.0383   -2.9650   -4.8496 C.1       1 <0>         0.2738
     18 N2         -5.3404   -3.1386   -5.9309 N.1       1 <0>        -0.4364
     19 Cl1        -6.9193   -4.0951   -2.8093 Cl        1 <0>        -0.0942
     20 I1          4.1776    2.4824   -0.0252 I         1 <0>        -0.0462
     21 H1         -0.9592    1.9053    0.0260 H         1 <0>         0.1466
     22 H2          1.1560    3.1655    0.0077 H         1 <0>         0.1340
     23 H3          3.3384   -0.4997   -0.0329 H         1 <0>         0.1340
     24 H4          1.2227   -1.7591   -0.0191 H         1 <0>         0.1465
     25 H5         -3.6418   -2.1644    0.1864 H         1 <0>         0.1137
     26 H6         -5.7088   -3.3887   -0.3332 H         1 <0>         0.1268
     27 H7         -2.8657   -1.6665   -3.9878 H         1 <0>         0.1341
@<TRIPOS>BOND
     1    1    6 ar
     2    1    2 ar
     3    1   21 1
     4    2    3 ar
     5    2   22 1
     6    3    4 ar
     7    3   20 1
     8    4    5 ar
     9    4   23 1
    10    5    6 ar
    11    5   24 1
    12    6    7 1
    13    7    8 2
    14    7    9 2
    15    7   10 1
    16   10   11 1
    17   11   16 ar
    18   11   12 ar
    19   12   13 ar
    20   12   25 1
    21   13   14 ar
    22   13   26 1
    23   14   15 ar
    24   14   19 1
    25   15   16 ar
    26   15   17 1
    27   16   27 1
    28   17   18 3
@<TRIPOS>MOLECULE
ZINC18169815
   31    33     0     0     0
SMALL
USER_CHARGES

@<TRIPOS>ATOM
      1 C1         -0.3293    0.8707   -0.4296 C.ar      1 <0>        -0.1644
      2 C2          0.3676    1.2628    0.7002 C.ar      1 <0>        -0.0999
      3 C3          1.6713    0.8550    0.8866 C.ar      1 <0>        -0.1652
      4 C4          2.2896    0.0426   -0.0699 C.ar      1 <0>         0.1572
      5 C5          1.5783   -0.3494   -1.2090 C.ar      1 <0>        -0.1534
      6 C6          0.2753    0.0670   -1.3806 C.ar      1 <0>        -0.0998
      7 N1          3.5784   -0.3645    0.1069 N.2       1 <0>        -0.5539
      8 C7          3.8852   -1.1757    1.1079 C.2       1 <0>         0.4608
      9 C8          2.8442   -1.7914    1.9675 C.2       1 <0>        -0.1344
     10 C9          1.4943   -1.6703    1.9195 C.2       1 <0>        -0.0497
     11 C10         0.6675   -2.2274    2.9997 C.ar      1 <0>        -0.0472
     12 C11        -0.7264   -2.2533    2.8767 C.ar      1 <0>        -0.0863
     13 C12        -1.4950   -2.7773    3.8940 C.ar      1 <0>        -0.1196
     14 C13        -0.8921   -3.2768    5.0356 C.ar      1 <0>        -0.0934
     15 C14         0.4865   -3.2550    5.1657 C.ar      1 <0>        -0.0862
     16 C15         1.2702   -2.7396    4.1537 C.ar      1 <0>        -0.0848
     17 Br1         1.2971   -3.9400    6.7307 Br        1 <0>        -0.0535
     18 S1          3.8707   -2.7387    3.0842 S.3       1 <0>        -0.2351
     19 C16         5.4548   -2.2898    2.3929 C.2       1 <0>         0.5307
     20 O1          6.6833   -2.6821    2.7925 O.3       1 <0>        -0.5726
     21 N2          5.1379   -1.4891    1.3969 N.2       1 <0>        -0.6468
     22 H1         -1.3518    1.1898   -0.5677 H         1 <0>         0.1143
     23 H2         -0.1111    1.8903    1.4374 H         1 <0>         0.1160
     24 H3          2.2138    1.1621    1.7685 H         1 <0>         0.1154
     25 H4          2.0488   -0.9762   -1.9521 H         1 <0>         0.1200
     26 H5         -0.2752   -0.2348   -2.2595 H         1 <0>         0.1171
     27 H6          1.0268   -1.1646    1.0876 H         1 <0>         0.1604
     28 H7         -1.1987   -1.8635    1.9872 H         1 <0>         0.1317
     29 H8         -2.5708   -2.7979    3.8003 H         1 <0>         0.1314
     30 H9         -1.5001   -3.6853    5.8293 H         1 <0>         0.1298
     31 H10         2.3454   -2.7276    4.2541 H         1 <0>         0.1617
@<TRIPOS>BOND
     1    1    6 ar
     2    1    2 ar
     3    1   22 1
     4    2    3 ar
     5    2   23 1
     6    3    4 ar
     7    3   24 1
     8    4    5 ar
     9    4    7 1
    10    5    6 ar
    11    5   25 1
    12    6   26 1
    13    7    8 2
    14    8   21 1
    15    8    9 1
    16    9   10 2
    17    9   18 1
    18   10   11 1
    19   10   27 1
    20   11   16 ar
    21   11   12 ar
    22   12   13 ar
    23   12   28 1
    24   13   14 ar
    25   13   29 1
    26   14   15 ar
    27   14   30 1
    28   15   16 ar
    29   15   17 1
    30   16   31 1
    31   18   19 1
    32   19   20 1
    33   19   21 2
@<TRIPOS>MOLECULE
ZINC66583903
   30    31     0     0     0
SMALL
USER_CHARGES

@<TRIPOS>ATOM
      1 C1         -0.0167    1.3780    0.0096 C.ar      1 <0>        -0.0606
      2 C2          1.1689    2.0878    0.0021 C.ar      1 <0>        -0.1715
      3 C3          2.3819    1.4127   -0.0131 C.ar      1 <0>         0.2808
      4 C4          2.4005    0.0224   -0.0206 C.ar      1 <0>        -0.1001
      5 C5          1.2094   -0.6831   -0.0131 C.ar      1 <0>         0.1171
      6 C6          0.0021   -0.0041    0.0020 C.ar      1 <0>        -0.2376
      7 F1          1.2245   -2.0340   -0.0204 F         1 <0>        -0.1453
      8 F2          3.5787   -0.6386   -0.0358 F         1 <0>        -0.1334
      9 N1          3.5826    2.1295   -0.0211 N.2       1 <0>        -1.0853
     10 S1          5.0286    1.3226   -0.0392 S.o2      1 <0>         2.6069
     11 O1          5.1269    0.6374    1.2018 O.2       1 <0>        -1.0246
     12 O2          5.1027    0.6499   -1.2887 O.2       1 <0>        -1.0221
     13 C7          6.3038    2.5385   -0.0455 C.2       1 <0>        -0.6697
     14 C8          7.1284    2.6396    0.9876 C.2       1 <0>        -0.0045
     15 C9          8.1981    3.6596    0.9823 C.ar      1 <0>        -0.0516
     16 C10         8.3388    4.5214   -0.1062 C.ar      1 <0>        -0.0944
     17 C11         9.3388    5.4718   -0.1052 C.ar      1 <0>        -0.0922
     18 C12        10.2020    5.5711    0.9726 C.ar      1 <0>        -0.0879
     19 C13        10.0673    4.7190    2.0553 C.ar      1 <0>        -0.0940
     20 C14         9.0676    3.7685    2.0683 C.ar      1 <0>        -0.0941
     21 Br1        11.5708    6.8757    0.9655 Br        1 <0>        -0.0552
     22 H1         -0.9597    1.9041    0.0259 H         1 <0>         0.1230
     23 H2          1.1519    3.1677    0.0077 H         1 <0>         0.1282
     24 H3         -0.9264   -0.5557    0.0082 H         1 <0>         0.1240
     25 H4          6.4136    3.2015   -0.8910 H         1 <0>         0.1499
     26 H5          7.0186    1.9767    1.8331 H         1 <0>         0.1442
     27 H6          7.6664    4.4444   -0.9478 H         1 <0>         0.1391
     28 H7          9.4487    6.1393   -0.9470 H         1 <0>         0.1357
     29 H8         10.7439    4.8010    2.8930 H         1 <0>         0.1356
     30 H9          8.9607    3.1071    2.9154 H         1 <0>         0.1395
@<TRIPOS>BOND
     1    1    6 ar
     2    1    2 ar
     3    1   22 1
     4    2    3 ar
     5    2   23 1
     6    3    4 ar
     7    3    9 1
     8    4    5 ar
     9    4    8 1
    10    5    6 ar
    11    5    7 1
    12    6   24 1
    13    9   10 1
    14   10   11 2
    15   10   12 2
    16   10   13 1
    17   13   14 2
    18   13   25 1
    19   14   15 1
    20   14   26 1
    21   15   20 ar
    22   15   16 ar
    23   16   17 ar
    24   16   27 1
    25   17   18 ar
    26   17   28 1
    27   18   19 ar
    28   18   21 1
    29   19   20 ar
    30   19   29 1
    31   20   30 1
@<TRIPOS>MOLECULE
ZINC28781227
   26    27     0     0     0
SMALL
USER_CHARGES
3-bromo-N-(3,5-difluorophenyl)benzenesulfonamide
@<TRIPOS>ATOM
      1 C1          0.4433    1.7640    0.2771 C.ar      1 <0>        -0.1407
      2 C2          0.6643    3.1259    0.1885 C.ar      1 <0>        -0.0100
      3 C3         -0.4059    4.0006    0.1743 C.ar      1 <0>        -0.6511
      4 C4         -1.6977    3.5139    0.2486 C.ar      1 <0>        -0.0007
      5 C5         -1.9193    2.1513    0.3323 C.ar      1 <0>        -0.1131
      6 C6         -0.8477    1.2765    0.3514 C.ar      1 <0>        -0.0608
      7 Br1        -3.6863    1.4845    0.4268 Br        1 <0>        -0.0588
      8 S1         -0.1237    5.7361    0.0608 S.o2      1 <0>         2.5995
      9 O1         -1.3169    6.3712    0.4992 O.2       1 <0>        -1.0293
     10 O2          1.1376    5.9829    0.6670 O.2       1 <0>        -0.9916
     11 N1          0.0439    6.1010   -1.5458 N.2       1 <0>        -1.0832
     12 C7         -1.0253    5.9022   -2.4222 C.ar      1 <0>         0.2753
     13 C8         -1.0026    4.8405   -3.3172 C.ar      1 <0>        -0.2021
     14 C9         -2.0653    4.6421   -4.1805 C.ar      1 <0>         0.1326
     15 C10        -3.1461    5.5077   -4.1601 C.ar      1 <0>        -0.2464
     16 C11        -3.1679    6.5705   -3.2727 C.ar      1 <0>         0.1359
     17 C12        -2.1100    6.7693   -2.4038 C.ar      1 <0>        -0.2065
     18 F1         -4.2234    7.4137   -3.2553 F         1 <0>        -0.1453
     19 F2         -2.0464    3.6063   -5.0475 F         1 <0>        -0.1465
     20 H1          1.2798    1.0809    0.2878 H         1 <0>         0.1330
     21 H2          1.6733    3.5065    0.1301 H         1 <0>         0.1402
     22 H3         -2.5338    4.1974    0.2371 H         1 <0>         0.1424
     23 H4         -1.0201    0.2126    0.4198 H         1 <0>         0.1309
     24 H5         -0.1579    4.1678   -3.3365 H         1 <0>         0.1294
     25 H6         -3.9730    5.3538   -4.8375 H         1 <0>         0.1310
     26 H7         -2.1278    7.5980   -1.7114 H         1 <0>         0.1360
@<TRIPOS>BOND
     1    1    6 ar
     2    1    2 ar
     3    1   20 1
     4    2    3 ar
     5    2   21 1
     6    3    4 ar
     7    3    8 1
     8    4    5 ar
     9    4   22 1
    10    5    6 ar
    11    5    7 1
    12    6   23 1
    13    8    9 2
    14    8   10 2
    15    8   11 1
    16   11   12 1
    17   12   17 ar
    18   12   13 ar
    19   13   14 ar
    20   13   24 1
    21   14   15 ar
    22   14   19 1
    23   15   16 ar
    24   15   25 1
    25   16   17 ar
    26   16   18 1
    27   17   26 1
@<TRIPOS>MOLECULE
ZINC09547529
   39    43     0     0     0
SMALL
USER_CHARGES

@<TRIPOS>ATOM
      1 C1         -0.0167    1.3781    0.0096 C.ar      1 <0>        -0.1244
      2 C2          1.1709    2.0855    0.0021 C.ar      1 <0>        -0.1250
      3 C3          2.3773    1.4107   -0.0130 C.ar      1 <0>        -0.1009
      4 C4          2.3960    0.0285   -0.0201 C.ar      1 <0>        -0.0761
      5 C5          1.2084   -0.6789   -0.0117 C.ar      1 <0>        -0.1043
      6 C6          0.0021   -0.0041    0.0020 C.ar      1 <0>        -0.1237
      7 C7          3.7112   -0.7071   -0.0376 C.3       1 <0>         0.0193
      8 C8          4.1644   -0.9594    1.3773 C.2       1 <0>         0.2294
      9 N1          4.9212   -0.1370    2.0983 N.2       1 <0>        -0.5524
     10 C9          5.1295   -0.6622    3.2900 C.2       1 <0>         0.3614
     11 C10         5.8775   -0.2131    4.4802 C.2       1 <0>        -0.2600
     12 C11         6.6435    1.0166    4.6719 C.2       1 <0>        -0.0182
     13 C12         7.2396    1.1862    5.8716 C.2       1 <0>        -0.2227
     14 S1          6.8188   -0.2630    6.8013 S.3       1 <0>         0.0709
     15 C13         5.8441   -1.0940    5.5725 C.2       1 <0>         0.1898
     16 N2          5.1862   -2.2471    5.5300 N.2       1 <0>        -0.5577
     17 C14         4.5278   -2.6326    4.4640 C.2       1 <0>         0.6349
     18 N3          4.4838   -1.8640    3.3383 N.pl3     1 <0>        -0.3524
     19 N4          3.8686   -2.0203    2.0878 N.2       1 <0>        -0.3085
     20 O1          3.8784   -3.8184    4.4808 O.3       1 <0>        -0.6231
     21 C15         8.0746    2.3488    6.3140 C.3       1 <0>        -0.0217
     22 C16         8.4685    3.1620    5.0726 C.3       1 <0>        -0.1124
     23 C17         7.2180    3.3911    4.2187 C.3       1 <0>        -0.1182
     24 C18         6.7772    2.0738    3.5792 C.3       1 <0>        -0.0576
     25 H1         -0.9591    1.9053    0.0259 H         1 <0>         0.1177
     26 H2          1.1563    3.1654    0.0076 H         1 <0>         0.1196
     27 H3          3.3051    1.9634   -0.0196 H         1 <0>         0.1254
     28 H4          1.2231   -1.7588   -0.0176 H         1 <0>         0.1242
     29 H5         -0.9258   -0.5567    0.0082 H         1 <0>         0.1198
     30 H6          3.5884   -1.6586   -0.5549 H         1 <0>         0.0941
     31 H7          4.4573   -0.1052   -0.5563 H         1 <0>         0.0986
     32 H8          7.4998    2.9752    6.9961 H         1 <0>         0.0720
     33 H9          8.9720    1.9865    6.8156 H         1 <0>         0.0719
     34 H10         8.8819    4.1224    5.3807 H         1 <0>         0.0657
     35 H11         9.2101    2.6107    4.4945 H         1 <0>         0.0654
     36 H12         6.4152    3.7752    4.8480 H         1 <0>         0.0624
     37 H13         7.4416    4.1163    3.4363 H         1 <0>         0.0623
     38 H14         7.5215    1.7535    2.8502 H         1 <0>         0.0727
     39 H15         5.8154    2.2122    3.0853 H         1 <0>         0.0816
@<TRIPOS>BOND
     1    1    6 ar
     2    1    2 ar
     3    1   25 1
     4    2    3 ar
     5    2   26 1
     6    3    4 ar
     7    3   27 1
     8    4    5 ar
     9    4    7 1
    10    5    6 ar
    11    5   28 1
    12    6   29 1
    13    7    8 1
    14    7   30 1
    15    7   31 1
    16    8   19 2
    17    8    9 1
    18    9   10 2
    19   10   18 1
    20   10   11 1
    21   11   15 2
    22   11   12 1
    23   12   24 1
    24   12   13 2
    25   13   14 1
    26   13   21 1
    27   14   15 1
    28   15   16 1
    29   16   17 2
    30   17   18 1
    31   17   20 1
    32   18   19 1
    33   21   22 1
    34   21   32 1
    35   21   33 1
    36   22   23 1
    37   22   34 1
    38   22   35 1
    39   23   24 1
    40   23   36 1
    41   23   37 1
    42   24   38 1
    43   24   39 1
@<TRIPOS>MOLECULE
ZINC39975142
   31    32     0     0     0
SMALL
USER_CHARGES

@<TRIPOS>ATOM
      1 C1         -0.0184    1.5028    0.0103 C.3       1 <0>        -0.1109
      2 C2          0.0021   -0.0041    0.0020 C.ar      1 <0>        -0.1205
      3 C3          0.0057   -0.6888   -1.1991 C.ar      1 <0>        -0.0803
      4 C4          0.0245   -2.0707   -1.2067 C.ar      1 <0>        -0.1517
      5 C5          0.0400   -2.7685   -0.0132 C.ar      1 <0>        -0.0335
      6 C6          0.0373   -2.0840    1.1875 C.ar      1 <0>        -0.6274
      7 C7          0.0229   -0.7015    1.1951 C.ar      1 <0>         0.0234
      8 C8          0.0252    0.0449    2.5043 C.3       1 <0>        -0.1463
      9 S1          0.0566   -2.9732    2.7086 S.o2      1 <0>         2.6313
     10 O1         -0.9721   -2.4181    3.5166 O.2       1 <0>        -1.0140
     11 O2          0.0998   -4.3530    2.3718 O.2       1 <0>        -1.0203
     12 N1          1.4898   -2.6246    3.4614 N.2       1 <0>        -1.0664
     13 C9          1.7827   -3.1928    4.6962 C.ar      1 <0>         0.4530
     14 C10         2.9862   -2.8911    5.3256 C.ar      1 <0>        -0.2096
     15 C11         3.2652   -3.4632    6.5535 C.ar      1 <0>        -0.0221
     16 C12         2.3269   -4.3216    7.1134 C.ar      1 <0>        -0.2476
     17 C13         1.1527   -4.5765    6.4327 C.ar      1 <0>         0.1892
     18 N2          0.9115   -4.0117    5.2645 N.ar      1 <0>        -0.5888
     19 Br1         2.6549   -5.1330    8.7897 Br        1 <0>        -0.0873
     20 H1          1.0042    1.8801    0.0026 H         1 <0>         0.0688
     21 H2         -0.5455    1.8639   -0.8728 H         1 <0>         0.0625
     22 H3         -0.5286    1.8543    0.9071 H         1 <0>         0.0698
     23 H4         -0.0064   -0.1437   -2.1314 H         1 <0>         0.1217
     24 H5          0.0266   -2.6056   -2.1449 H         1 <0>         0.1244
     25 H6          0.0540   -3.8484   -0.0191 H         1 <0>         0.1368
     26 H7         -1.0017    0.2110    2.8297 H         1 <0>         0.0835
     27 H8          0.5542   -0.5412    3.2558 H         1 <0>         0.0963
     28 H9          0.5249    1.0049    2.3743 H         1 <0>         0.0713
     29 H10         3.6933   -2.2196    4.8615 H         1 <0>         0.1291
     30 H11         4.1914   -3.2477    7.0654 H         1 <0>         0.1240
     31 H12         0.4204   -5.2431    6.8639 H         1 <0>         0.1416
@<TRIPOS>BOND
     1    1    2 1
     2    1   20 1
     3    1   21 1
     4    1   22 1
     5    2    7 ar
     6    2    3 ar
     7    3    4 ar
     8    3   23 1
     9    4    5 ar
    10    4   24 1
    11    5    6 ar
    12    5   25 1
    13    6    7 ar
    14    6    9 1
    15    7    8 1
    16    8   26 1
    17    8   27 1
    18    8   28 1
    19    9   10 2
    20    9   11 2
    21    9   12 1
    22   12   13 1
    23   13   18 ar
    24   13   14 ar
    25   14   15 ar
    26   14   29 1
    27   15   16 ar
    28   15   30 1
    29   16   17 ar
    30   16   19 1
    31   17   18 ar
    32   17   31 1
@<TRIPOS>MOLECULE
ZINC59859853
   39    41     0     0     0
SMALL
USER_CHARGES

@<TRIPOS>ATOM
      1 C1          0.1425    2.8204    2.4239 C.3       1 <0>        -0.1108
      2 C2          0.0776    1.4273    1.8530 C.ar      1 <0>        -0.0856
      3 C3          0.0029    1.2445    0.4842 C.ar      1 <0>        -0.1176
      4 C4         -0.0568   -0.0321   -0.0434 C.ar      1 <0>        -0.1164
      5 C5         -0.0418   -1.1292    0.7958 C.ar      1 <0>        -0.1037
      6 C6          0.0332   -0.9490    2.1703 C.ar      1 <0>         0.1559
      7 C7          0.0986    0.3343    2.6968 C.ar      1 <0>        -0.0654
      8 C8          0.1863    0.5342    4.1880 C.3       1 <0>        -0.1137
      9 N1          0.0480   -2.0598    3.0242 N.am      1 <0>        -0.5463
     10 C9         -1.1191   -2.5591    3.4845 C.2       1 <0>         0.5600
     11 O1         -2.1837   -2.0611    3.1702 O.2       1 <0>        -0.5028
     12 C10        -1.0596   -3.7310    4.3825 C.2       1 <0>        -0.2299
     13 C11        -2.2069   -4.3054    4.8988 C.2       1 <0>         0.0448
     14 C12        -3.5203   -3.9011    4.3918 C.ar      1 <0>        -0.0732
     15 C13        -3.7401   -3.7910    3.0112 C.ar      1 <0>        -0.0159
     16 C14        -4.9786   -3.4101    2.5431 C.ar      1 <0>        -0.1243
     17 C15        -6.0052   -3.1357    3.4311 C.ar      1 <0>        -0.0776
     18 C16        -5.7978   -3.2412    4.7969 C.ar      1 <0>        -0.1027
     19 C17        -4.5667   -3.6276    5.2835 C.ar      1 <0>        -0.0651
     20 Br1        -7.2094   -2.8626    5.9969 Br        1 <0>        -0.0612
     21 C18         0.2773   -4.2597    4.7024 C.2       1 <0>         0.4959
     22 O2          0.4212   -5.3278    5.5144 O.3       1 <0>        -0.6333
     23 N2          1.3325   -3.6641    4.1752 N.2       1 <0>        -0.6600
     24 C19         1.2208   -2.6127    3.3664 C.2       1 <0>         0.6679
     25 O3          2.2409   -2.1225    2.9160 O.2       1 <0>        -0.5589
     26 H1          1.1839    3.1319    2.5045 H         1 <0>         0.0693
     27 H2         -0.3925    3.5072    1.7680 H         1 <0>         0.0643
     28 H3         -0.3171    2.8298    3.4123 H         1 <0>         0.0668
     29 H4         -0.0093    2.1007   -0.1740 H         1 <0>         0.1211
     30 H5         -0.1155   -0.1717   -1.1128 H         1 <0>         0.1234
     31 H6         -0.0888   -2.1262    0.3832 H         1 <0>         0.1191
     32 H7         -0.8183    0.6068    4.6045 H         1 <0>         0.0683
     33 H8          0.7061   -0.3116    4.6380 H         1 <0>         0.0649
     34 H9          0.7347    1.4521    4.3998 H         1 <0>         0.0699
     35 H10        -2.1344   -5.0520    5.6758 H         1 <0>         0.1572
     36 H11        -2.9407   -4.0038    2.3169 H         1 <0>         0.1226
     37 H12        -5.1493   -3.3248    1.4801 H         1 <0>         0.1299
     38 H13        -6.9733   -2.8373    3.0568 H         1 <0>         0.1286
     39 H14        -4.4079   -3.7145    6.3482 H         1 <0>         0.1343
@<TRIPOS>BOND
     1    1    2 1
     2    1   26 1
     3    1   27 1
     4    1   28 1
     5    2    7 ar
     6    2    3 ar
     7    3    4 ar
     8    3   29 1
     9    4    5 ar
    10    4   30 1
    11    5    6 ar
    12    5   31 1
    13    6    7 ar
    14    6    9 1
    15    7    8 1
    16    8   32 1
    17    8   33 1
    18    8   34 1
    19    9   24 am
    20    9   10 am
    21   10   11 2
    22   10   12 1
    23   12   13 2
    24   12   21 1
    25   13   14 1
    26   13   35 1
    27   14   19 ar
    28   14   15 ar
    29   15   16 ar
    30   15   36 1
    31   16   17 ar
    32   16   37 1
    33   17   18 ar
    34   17   38 1
    35   18   19 ar
    36   18   20 1
    37   19   39 1
    38   21   22 1
    39   21   23 2
    40   23   24 1
    41   24   25 2
@<TRIPOS>MOLECULE
ZINC19883146
   40    43     0     0     0
SMALL
USER_CHARGES

@<TRIPOS>ATOM
      1 C1         -0.0225    1.8097    0.0120 C.3       1 <0>        -0.1639
      2 S1          0.0021   -0.0041    0.0020 S.3       1 <0>        -0.0552
      3 C2          0.8484   -0.4107   -1.4889 C.2       1 <0>         0.1691
      4 C3          1.0450   -1.7140   -1.8243 C.2       1 <0>        -0.0984
      5 C4          1.7547   -2.0884   -3.0921 C.3       1 <0>         0.0932
      6 H1          2.4328   -2.9177   -2.8906 H         1 <0>         0.1008
      7 C5          2.5442   -0.9254   -3.6376 C.2       1 <0>        -0.2652
      8 C6          2.2866    0.3375   -3.2361 C.2       1 <0>         0.2207
      9 N1          1.3044    0.5905   -2.3148 N.pl3     1 <0>        -0.6385
     10 C7          3.0627    1.5043   -3.7960 C.3       1 <0>        -0.0981
     11 C8          4.4833    1.0557   -4.1459 C.3       1 <0>        -0.1104
     12 C9          4.3951   -0.0913   -5.1580 C.3       1 <0>        -0.1688
     13 C10         3.5565   -1.1954   -4.5749 C.2       1 <0>         0.4018
     14 O1          3.7582   -2.3429   -4.9203 O.2       1 <0>        -0.4610
     15 C11         0.7387   -2.5193   -4.1183 C.ar      1 <0>        -0.0636
     16 C12        -0.2417   -1.6364   -4.5314 C.ar      1 <0>        -0.0950
     17 C13        -1.1755   -2.0268   -5.4729 C.ar      1 <0>        -0.1011
     18 C14        -1.1312   -3.3053   -6.0047 C.ar      1 <0>         0.0306
     19 C15        -0.1437   -4.1948   -5.5886 C.ar      1 <0>         0.0340
     20 C16         0.7925   -3.7947   -4.6489 C.ar      1 <0>        -0.0783
     21 O2         -0.3125   -5.3757   -6.2521 O.3       1 <0>        -0.3074
     22 C17        -1.6543   -5.3357   -6.7728 C.3       1 <0>         0.2128
     23 O3         -1.9187   -3.9289   -6.9289 O.3       1 <0>        -0.3097
     24 C18         0.5666   -2.7453   -0.9537 C.1       1 <0>         0.2568
     25 N2          0.1871   -3.5635   -0.2630 N.1       1 <0>        -0.4044
     26 H2          1.0001    2.1870    0.0043 H         1 <0>         0.0917
     27 H3         -0.5497    2.1708   -0.8711 H         1 <0>         0.0897
     28 H4         -0.5327    2.1613    0.9088 H         1 <0>         0.1234
     29 H5          0.9300    1.4823   -2.2411 H         1 <0>         0.4182
     30 H6          2.5669    1.8725   -4.6941 H         1 <0>         0.1027
     31 H7          3.1063    2.3010   -3.0535 H         1 <0>         0.0913
     32 H8          5.0331    1.8889   -4.5836 H         1 <0>         0.0887
     33 H9          4.9909    0.7111   -3.2450 H         1 <0>         0.0767
     34 H10         3.9352    0.2688   -6.0782 H         1 <0>         0.1019
     35 H11         5.3957   -0.4671   -5.3715 H         1 <0>         0.0991
     36 H12        -0.2782   -0.6395   -4.1174 H         1 <0>         0.1280
     37 H13        -1.9403   -1.3350   -5.7937 H         1 <0>         0.1344
     38 H14         1.5621   -4.4809   -4.3276 H         1 <0>         0.1367
     39 H15        -1.7070   -5.8445   -7.7353 H         1 <0>         0.1323
     40 H16        -2.3534   -5.7805   -6.0646 H         1 <0>         0.0844
@<TRIPOS>BOND
     1    1    2 1
     2    1   26 1
     3    1   27 1
     4    1   28 1
     5    2    3 1
     6    3    9 1
     7    3    4 2
     8    4    5 1
     9    4   24 1
    10    5    6 1
    11    5    7 1
    12    5   15 1
    13    7   13 1
    14    7    8 2
    15    8    9 1
    16    8   10 1
    17    9   29 1
    18   10   11 1
    19   10   30 1
    20   10   31 1
    21   11   12 1
    22   11   32 1
    23   11   33 1
    24   12   13 1
    25   12   34 1
    26   12   35 1
    27   13   14 2
    28   15   20 ar
    29   15   16 ar
    30   16   17 ar
    31   16   36 1
    32   17   18 ar
    33   17   37 1
    34   18   23 1
    35   18   19 ar
    36   19   20 ar
    37   19   21 1
    38   20   38 1
    39   21   22 1
    40   22   23 1
    41   22   39 1
    42   22   40 1
    43   24   25 3
@<TRIPOS>MOLECULE
ZINC05827477
   37    39     0     0     0
SMALL
USER_CHARGES
6-bromo-3-[2-(1-cyclohexenyl)ethyl]-2-sulfanyl-quinazolin-4-one
@<TRIPOS>ATOM
      1 C1         -3.5086    2.3864    5.2470 C.ar      1 <0>        -0.0412
      2 C2         -2.5115    3.0891    4.6314 C.ar      1 <0>        -0.1348
      3 C3         -1.9044    2.5729    3.4835 C.ar      1 <0>         0.2219
      4 C4         -2.3334    1.3257    2.9745 C.ar      1 <0>        -0.2439
      5 C5         -3.3524    0.6252    3.6181 C.ar      1 <0>         0.0104
      6 C6         -3.9319    1.1604    4.7487 C.ar      1 <0>        -0.1564
      7 Br1        -5.3153    0.2181    5.6286 Br        1 <0>        -0.0692
      8 C7         -1.6779    0.8062    1.7667 C.2       1 <0>         0.5520
      9 O1         -2.0041   -0.2614    1.2813 O.2       1 <0>        -0.5354
     10 N1         -0.6984    1.5583    1.2133 N.am      1 <0>        -0.5375
     11 C8         -0.3403    2.7516    1.7727 C.2       1 <0>         0.5364
     12 N2         -0.9131    3.2389    2.8455 N.2       1 <0>        -0.5652
     13 S1          0.9471    3.6831    1.0114 S.3       1 <0>        -0.7534
     14 C9         -0.0127    1.0858    0.0080 C.3       1 <0>         0.1056
     15 C10        -0.7527    1.5927   -1.2315 C.3       1 <0>        -0.0954
     16 C11        -0.0473    1.1067   -2.4714 C.2       1 <0>        -0.0947
     17 C12        -0.4757    0.0185   -3.0263 C.2       1 <0>        -0.1710
     18 C13         0.1291   -0.5927   -4.2562 C.3       1 <0>        -0.0873
     19 C14         1.0016    0.4347   -4.9807 C.3       1 <0>        -0.1217
     20 C15         1.9449    1.0785   -3.9566 C.3       1 <0>        -0.1189
     21 C16         1.1042    1.9176   -2.9894 C.3       1 <0>        -0.0850
     22 H1         -3.9742    2.7897    6.1341 H         1 <0>         0.1307
     23 H2         -2.1933    4.0406    5.0311 H         1 <0>         0.1389
     24 H3         -3.6845   -0.3283    3.2347 H         1 <0>         0.1351
     25 H4          1.0193    1.4665    0.0002 H         1 <0>         0.1180
     26 H5          0.0022   -0.0141    0.0020 H         1 <0>         0.0797
     27 H6         -1.7847    1.2120   -1.2237 H         1 <0>         0.0604
     28 H7         -0.7676    2.6926   -1.2254 H         1 <0>         0.0830
     29 H8         -1.3345   -0.5172   -2.5957 H         1 <0>         0.1025
     30 H9          0.7495   -1.4548   -3.9701 H         1 <0>         0.0686
     31 H10        -0.6722   -0.9259   -4.9321 H         1 <0>         0.0650
     32 H11         1.5856   -0.0685   -5.7654 H         1 <0>         0.0589
     33 H12         0.3606    1.2036   -5.4368 H         1 <0>         0.0616
     34 H13         2.4803    0.2912   -3.4056 H         1 <0>         0.0630
     35 H14         2.6709    1.7191   -4.4787 H         1 <0>         0.0623
     36 H15         0.7208    2.8026   -3.5183 H         1 <0>         0.0720
     37 H16         1.7350    2.2384   -2.1473 H         1 <0>         0.0851
@<TRIPOS>BOND
     1    1    6 ar
     2    1    2 ar
     3    1   22 1
     4    2    3 ar
     5    2   23 1
     6    3   12 1
     7    3    4 ar
     8    4    5 ar
     9    4    8 1
    10    5    6 ar
    11    5   24 1
    12    6    7 1
    13    8    9 2
    14    8   10 am
    15   10   11 1
    16   10   14 1
    17   11   12 2
    18   11   13 1
    19   14   15 1
    20   14   25 1
    21   14   26 1
    22   15   16 1
    23   15   27 1
    24   15   28 1
    25   16   21 1
    26   16   17 2
    27   17   18 1
    28   17   29 1
    29   18   19 1
    30   18   30 1
    31   18   31 1
    32   19   20 1
    33   19   32 1
    34   19   33 1
    35   20   21 1
    36   20   34 1
    37   20   35 1
    38   21   36 1
    39   21   37 1
@<TRIPOS>MOLECULE
ZINC35357201
   25    26     0     0     0
SMALL
USER_CHARGES

@<TRIPOS>ATOM
      1 C1         -0.0184    1.5028    0.0103 C.3       1 <0>        -0.0936
      2 C2          0.0021   -0.0041    0.0020 C.2       1 <0>         0.1778
      3 C3          0.0059   -0.7070   -1.1586 C.2       1 <0>        -0.7347
      4 S1          0.0324   -2.3787   -0.5318 S.3       1 <0>         0.3166
      5 C4          0.0357   -2.0101    1.1104 C.2       1 <0>         0.0613
      6 N1          0.0226   -0.6995    1.1225 N.2       1 <0>        -0.5227
      7 Cl1         0.0578   -3.1010    2.4607 Cl        1 <0>         0.0502
      8 S2         -0.0112   -0.1300   -2.8234 S.o2      1 <0>         2.6499
      9 O1         -1.3672   -0.1538   -3.2476 O.2       1 <0>        -1.0060
     10 O2          0.7750    1.0534   -2.8511 O.2       1 <0>        -1.0008
     11 N2          0.7910   -1.2527   -3.7390 N.2       1 <0>        -1.0668
     12 C5          0.9361   -1.0571   -5.1181 C.ar      1 <0>         0.2783
     13 C6          0.4119    0.0821   -5.7189 C.ar      1 <0>        -0.0294
     14 C7          0.5567    0.2724   -7.0809 C.ar      1 <0>        -0.1123
     15 C8          1.2230   -0.6706   -7.8457 C.ar      1 <0>         0.0141
     16 C9          1.7450   -1.8054   -7.2494 C.ar      1 <0>        -0.0803
     17 C10         1.6083   -1.9976   -5.8869 C.ar      1 <0>        -0.1109
     18 Br1         2.3294   -3.5444   -5.0725 Br        1 <0>        -0.0431
     19 F1          1.3633   -0.4827   -9.1762 F         1 <0>        -0.1485
     20 F2         -0.2384    1.0018   -4.9730 F         1 <0>        -0.1300
     21 H1          1.0042    1.8801    0.0026 H         1 <0>         0.0947
     22 H2         -0.5455    1.8639   -0.8728 H         1 <0>         0.0808
     23 H3         -0.5286    1.8543    0.9071 H         1 <0>         0.0828
     24 H4          0.1497    1.1567   -7.5485 H         1 <0>         0.1363
     25 H5          2.2638   -2.5393   -7.8483 H         1 <0>         0.1362
@<TRIPOS>BOND
     1    1    2 1
     2    1   21 1
     3    1   22 1
     4    1   23 1
     5    2    6 1
     6    2    3 2
     7    3    4 1
     8    3    8 1
     9    4    5 1
    10    5    6 2
    11    5    7 1
    12    8    9 2
    13    8   10 2
    14    8   11 1
    15   11   12 1
    16   12   17 ar
    17   12   13 ar
    18   13   14 ar
    19   13   20 1
    20   14   15 ar
    21   14   24 1
    22   15   16 ar
    23   15   19 1
    24   16   17 ar
    25   16   25 1
    26   17   18 1
@<TRIPOS>MOLECULE
ZINC42260159
   24    25     0     0     0
SMALL
USER_CHARGES

@<TRIPOS>ATOM
      1 C1         -0.0168    1.3877    0.0097 C.ar      1 <0>        -0.1769
      2 C2          1.1644    2.0943    0.0022 C.ar      1 <0>        -0.0147
      3 C3          2.3850    1.4128   -0.0131 C.ar      1 <0>        -0.1490
      4 C4          2.4009    0.0134   -0.0207 C.ar      1 <0>         0.0782
      5 C5          1.2143   -0.6869   -0.0131 C.ar      1 <0>        -0.2617
      6 C6          0.0021   -0.0041    0.0020 C.ar      1 <0>         0.3209
      7 N1         -1.1948   -0.7145    0.0096 N.2       1 <0>        -1.0687
      8 S1         -1.1748   -2.3704    0.0005 S.o2      1 <0>         2.6322
      9 O1         -0.6310   -2.7631   -1.2522 O.2       1 <0>        -1.0062
     10 O2         -0.6073   -2.7765    1.2383 O.2       1 <0>        -1.0081
     11 C7         -2.8515   -2.9117    0.0135 C.2       1 <0>        -0.6639
     12 C8         -3.6718   -3.1735   -1.0330 C.2       1 <0>        -0.0416
     13 C9         -4.9656   -3.5918   -0.7828 C.2       1 <0>        -0.1333
     14 C10        -5.3751   -3.7278    0.5031 C.2       1 <0>        -0.1723
     15 S2         -3.9078   -3.2651    1.4087 S.3       1 <0>         0.2140
     16 Br1        -7.0605   -4.2732    1.1648 Br        1 <0>         0.0376
     17 Cl1         3.9133   -0.8388   -0.0402 Cl        1 <0>        -0.0836
     18 C11         3.6158    2.1448   -0.0214 C.1       1 <0>         0.2824
     19 N2          4.5921    2.7255   -0.0280 N.1       1 <0>        -0.4636
     20 H1         -0.9598    1.9140    0.0260 H         1 <0>         0.1321
     21 H2          1.1483    3.1742    0.0077 H         1 <0>         0.1278
     22 H3          1.2251   -1.7668   -0.0194 H         1 <0>         0.1185
     23 H4         -3.3202   -3.0566   -2.0474 H         1 <0>         0.1537
     24 H5         -5.6398   -3.8067   -1.5986 H         1 <0>         0.1463
@<TRIPOS>BOND
     1    1    6 ar
     2    1    2 ar
     3    1   20 1
     4    2    3 ar
     5    2   21 1
     6    3    4 ar
     7    3   18 1
     8    4    5 ar
     9    4   17 1
    10    5    6 ar
    11    5   22 1
    12    6    7 1
    13    7    8 1
    14    8    9 2
    15    8   10 2
    16    8   11 1
    17   11   15 1
    18   11   12 2
    19   12   13 1
    20   12   23 1
    21   13   14 2
    22   13   24 1
    23   14   15 1
    24   14   16 1
    25   18   19 3
@<TRIPOS>MOLECULE
ZINC59768470
   30    31     0     0     0
SMALL
USER_CHARGES

@<TRIPOS>ATOM
      1 C1         -0.0814    1.5015    0.0178 C.3       1 <0>        -0.0898
      2 C2         -0.0437   -0.0050    0.0066 C.ar      1 <0>        -0.1932
      3 C3         -0.0588   -0.7043    1.1997 C.ar      1 <0>        -0.0504
      4 C4         -0.0248   -2.0849    1.1935 C.ar      1 <0>        -0.2535
      5 C5          0.0245   -2.7716   -0.0129 C.ar      1 <0>         0.2990
      6 C6          0.0396   -2.0662   -1.2101 C.ar      1 <0>        -0.1443
      7 C7          0.0001   -0.6849   -1.1965 C.ar      1 <0>        -0.0461
      8 Br1         0.1074   -2.9954   -2.8557 Br        1 <0>        -0.0748
      9 N1          0.0595   -4.1684   -0.0226 N.2       1 <0>        -1.0653
     10 S1          0.2030   -5.0030    1.4005 S.o2      1 <0>         2.5958
     11 O1          1.4482   -4.6233    1.9702 O.2       1 <0>        -1.0193
     12 O2         -1.0297   -4.8457    2.0897 O.2       1 <0>        -1.0183
     13 C8          0.3366   -6.7116    0.9912 C.ar      1 <0>        -0.5757
     14 C9         -0.8061   -7.4853    0.8833 C.ar      1 <0>        -0.0192
     15 C10        -0.7100   -8.8231    0.5629 C.ar      1 <0>        -0.0822
     16 C11         0.5444   -9.3980    0.3469 C.ar      1 <0>         0.0127
     17 C12         1.6943   -8.6116    0.4574 C.ar      1 <0>        -0.0183
     18 C13         1.5821   -7.2717    0.7738 C.ar      1 <0>        -0.0118
     19 Cl1         3.2589   -9.3152    0.1917 Cl        1 <0>        -0.0521
     20 C14         0.6518  -10.7867    0.0143 C.1       1 <0>         0.2549
     21 N2          0.7369  -11.8883   -0.2495 N.1       1 <0>        -0.3992
     22 H1         -1.1176    1.8392   -0.0025 H         1 <0>         0.0529
     23 H2          0.4033    1.8704    0.9217 H         1 <0>         0.0534
     24 H3          0.4427    1.8846   -0.8578 H         1 <0>         0.0534
     25 H4         -0.0969   -0.1700    2.1375 H         1 <0>         0.1082
     26 H5         -0.0363   -2.6301    2.1257 H         1 <0>         0.1048
     27 H6          0.0072   -0.1359   -2.1265 H         1 <0>         0.1143
     28 H7         -1.7757   -7.0400    1.0508 H         1 <0>         0.1564
     29 H8         -1.6028   -9.4250    0.4795 H         1 <0>         0.1485
     30 H9          2.4692   -6.6612    0.8557 H         1 <0>         0.1591
@<TRIPOS>BOND
     1    1    2 1
     2    1   22 1
     3    1   23 1
     4    1   24 1
     5    2    7 ar
     6    2    3 ar
     7    3    4 ar
     8    3   25 1
     9    4    5 ar
    10    4   26 1
    11    5    6 ar
    12    5    9 1
    13    6    7 ar
    14    6    8 1
    15    7   27 1
    16    9   10 1
    17   10   11 2
    18   10   12 2
    19   10   13 1
    20   13   18 ar
    21   13   14 ar
    22   14   15 ar
    23   14   28 1
    24   15   16 ar
    25   15   29 1
    26   16   17 ar
    27   16   20 1
    28   17   18 ar
    29   17   19 1
    30   18   30 1
    31   20   21 3
@<TRIPOS>MOLECULE
ZINC62194093
   35    37     0     0     0
SMALL
USER_CHARGES

@<TRIPOS>ATOM
      1 C1         -0.0167    1.3780    0.0096 C.ar      1 <0>        -0.0262
      2 C2          1.1715    2.0793    0.0020 C.ar      1 <0>        -0.1465
      3 C3          2.3871    1.4081   -0.0116 C.ar      1 <0>        -0.0411
      4 C4          2.4058    0.0311   -0.0139 C.ar      1 <0>        -0.1043
      5 C5          1.2088   -0.6729   -0.0099 C.ar      1 <0>        -0.0208
      6 C6          0.0021   -0.0041    0.0020 C.ar      1 <0>        -0.6155
      7 S1         -1.5099   -0.9087    0.0087 S.o2      1 <0>         2.6037
      8 O1         -1.2149   -2.1889    0.5504 O.2       1 <0>        -1.0240
      9 O2         -2.4936   -0.0515    0.5718 O.2       1 <0>        -1.0238
     10 N1         -1.9423   -1.1516   -1.5713 N.2       1 <0>        -1.0749
     11 C7         -3.1141   -1.8496   -1.8757 C.ar      1 <0>         0.2500
     12 C8         -3.4844   -2.0646   -3.2016 C.ar      1 <0>        -0.1451
     13 C9         -4.6541   -2.7615   -3.4533 C.ar      1 <0>        -0.0890
     14 C10        -5.4112   -3.2181   -2.3886 C.ar      1 <0>         0.0117
     15 N2         -5.0326   -2.9978   -1.1443 N.ar      1 <0>        -0.4186
     16 C11        -3.9233   -2.3438   -0.8613 C.ar      1 <0>        -0.0352
     17 Br1        -7.0105   -4.1703   -2.7221 Br        1 <0>        -0.0593
     18 C12         3.6863   -0.7621   -0.0124 C.3       1 <0>        -0.0801
     19 C13         4.8607    0.1126   -0.4464 C.3       1 <0>        -0.1191
     20 C14         4.8474    1.3937    0.3957 C.3       1 <0>        -0.1199
     21 C15         3.6454    2.2359   -0.0272 C.3       1 <0>        -0.0834
     22 H1         -0.9581    1.9071    0.0260 H         1 <0>         0.1362
     23 H2          1.1561    3.1592    0.0064 H         1 <0>         0.1248
     24 H3          1.2226   -1.7528   -0.0169 H         1 <0>         0.1350
     25 H4         -2.8743   -1.6964   -4.0131 H         1 <0>         0.1332
     26 H5         -4.9722   -2.9464   -4.4687 H         1 <0>         0.1273
     27 H6         -3.6436   -2.1868    0.1699 H         1 <0>         0.1340
     28 H7          3.8728   -1.1415    0.9923 H         1 <0>         0.0753
     29 H8          3.5899   -1.6017   -0.7007 H         1 <0>         0.0766
     30 H9          5.7964   -0.4228   -0.2853 H         1 <0>         0.0670
     31 H10         4.7593    0.3659   -1.5017 H         1 <0>         0.0660
     32 H11         4.7629    1.1379    1.4519 H         1 <0>         0.0655
     33 H12         5.7665    1.9544    0.2257 H         1 <0>         0.0666
     34 H13         3.8114    2.6187   -1.0342 H         1 <0>         0.0784
     35 H14         3.5333    3.0735    0.6612 H         1 <0>         0.0754
@<TRIPOS>BOND
     1    1    6 ar
     2    1    2 ar
     3    1   22 1
     4    2    3 ar
     5    2   23 1
     6    3   21 1
     7    3    4 ar
     8    4    5 ar
     9    4   18 1
    10    5    6 ar
    11    5   24 1
    12    6    7 1
    13    7    8 2
    14    7    9 2
    15    7   10 1
    16   10   11 1
    17   11   16 ar
    18   11   12 ar
    19   12   13 ar
    20   12   25 1
    21   13   14 ar
    22   13   26 1
    23   14   15 ar
    24   14   17 1
    25   15   16 ar
    26   16   27 1
    27   18   19 1
    28   18   28 1
    29   18   29 1
    30   19   20 1
    31   19   30 1
    32   19   31 1
    33   20   21 1
    34   20   32 1
    35   20   33 1
    36   21   34 1
    37   21   35 1
@<TRIPOS>MOLECULE
ZINC26527953
   32    33     0     0     0
SMALL
USER_CHARGES
2-chloro-N-(3,5-dichlorophenyl)-5-methylsulfonyl-benzenesulfonamide
@<TRIPOS>ATOM
      1 C1         -3.1797    3.2597   -1.8068 C.3       1 <0>        -0.6563
      2 S1         -2.7896    3.2667   -0.0352 S.o2      1 <0>         2.4988
      3 O1         -3.6194    2.3404    0.6523 O.2       1 <0>        -0.9394
      4 O2         -2.6539    4.6022    0.4308 O.2       1 <0>        -0.9271
      5 C2         -1.1684    2.5853    0.0742 C.ar      1 <0>        -0.6864
      6 C3         -1.0007    1.2206    0.2193 C.ar      1 <0>         0.0171
      7 C4          0.2705    0.6861    0.3095 C.ar      1 <0>        -0.1572
      8 C5          1.3759    1.5159    0.2446 C.ar      1 <0>         0.1054
      9 C6          1.2076    2.8807    0.0946 C.ar      1 <0>        -0.6751
     10 C7         -0.0646    3.4148    0.0097 C.ar      1 <0>         0.0733
     11 S2          2.6145    3.9383    0.0123 S.o2      1 <0>         2.5791
     12 O3          3.4972    3.3663   -0.9432 O.2       1 <0>        -0.9748
     13 O4          2.1190    5.2648   -0.1064 O.2       1 <0>        -1.0279
     14 N1          3.3807    3.8487    1.4777 N.2       1 <0>        -1.0436
     15 C8          2.7162    4.2495    2.6389 C.ar      1 <0>         0.2491
     16 C9          2.0082    5.4444    2.6582 C.ar      1 <0>        -0.2038
     17 C10         1.3471    5.8361    3.8072 C.ar      1 <0>         0.0098
     18 C11         1.3993    5.0444    4.9410 C.ar      1 <0>        -0.1745
     19 C12         2.1085    3.8562    4.9264 C.ar      1 <0>         0.0004
     20 C13         2.7668    3.4568    3.7784 C.ar      1 <0>        -0.1455
     21 Cl1         2.1713    2.8661    6.3509 Cl        1 <0>        -0.0895
     22 Cl2         0.4567    7.3261    3.8301 Cl        1 <0>        -0.0854
     23 Cl3         2.9732    0.8445    0.3518 Cl        1 <0>        -0.0194
     24 H1         -2.5317    3.9799   -2.3278 H         1 <0>         0.1358
     25 H2         -4.2328    3.5426   -1.9515 H         1 <0>         0.1339
     26 H3         -3.0112    2.2524   -2.2154 H         1 <0>         0.1321
     27 H4         -1.8634    0.5725    0.2659 H         1 <0>         0.1503
     28 H5          0.4012   -0.3796    0.4263 H         1 <0>         0.1451
     29 H6         -0.1961    4.4803   -0.1074 H         1 <0>         0.1615
     30 H7          1.9706    6.0646    1.7748 H         1 <0>         0.1571
     31 H8          0.8857    5.3545    5.8390 H         1 <0>         0.1271
     32 H9          3.3196    2.5291    3.7673 H         1 <0>         0.1303
@<TRIPOS>BOND
     1    1    2 1
     2    1   24 1
     3    1   25 1
     4    1   26 1
     5    2    3 2
     6    2    4 2
     7    2    5 1
     8    5   10 ar
     9    5    6 ar
    10    6    7 ar
    11    6   27 1
    12    7    8 ar
    13    7   28 1
    14    8    9 ar
    15    8   23 1
    16    9   10 ar
    17    9   11 1
    18   10   29 1
    19   11   12 2
    20   11   13 2
    21   11   14 1
    22   14   15 1
    23   15   20 ar
    24   15   16 ar
    25   16   17 ar
    26   16   30 1
    27   17   18 ar
    28   17   22 1
    29   18   19 ar
    30   18   31 1
    31   19   20 ar
    32   19   21 1
    33   20   32 1
@<TRIPOS>MOLECULE
ZINC37414469
   35    37     0     0     0
SMALL
USER_CHARGES

@<TRIPOS>ATOM
      1 C1          0.0004    1.3667    0.1993 C.2       1 <0>        -0.0803
      2 C2          1.2221    1.9878    0.0989 C.2       1 <0>        -0.1108
      3 C3          2.3170    1.2436   -0.2033 C.2       1 <0>        -0.2503
      4 S1          1.7218   -0.3196   -0.3603 S.3       1 <0>         0.3930
      5 C4          0.0001   -0.0022   -0.0242 C.2       1 <0>        -0.2000
      6 C5         -1.1227   -0.9426    0.0081 C.2       1 <0>         0.6375
      7 O1         -2.2601   -0.5282    0.1353 O.2       1 <0>        -0.5424
      8 N1         -0.8963   -2.2665   -0.1030 N.am      1 <0>        -0.5781
      9 C6         -1.9039   -3.3081   -0.2203 C.3       1 <0>         0.1408
     10 H1         -2.0733   -3.5261   -1.2748 H         1 <0>         0.0656
     11 C7         -3.2362   -3.0798    0.4620 C.3       1 <0>        -0.1193
     12 C8         -4.1233   -4.2978    0.1551 C.3       1 <0>        -0.1136
     13 C9         -3.4652   -5.5952    0.6152 C.3       1 <0>        -0.1208
     14 C10        -2.0601   -5.7581    0.0138 C.3       1 <0>        -0.1044
     15 C11        -1.2514   -4.5442    0.4565 C.3       1 <0>        -0.1039
     16 H2         -1.2387   -4.4408    1.5415 H         1 <0>         0.0907
     17 C12         0.1633   -4.4653   -0.1384 C.3       1 <0>        -0.0990
     18 C13         0.4267   -2.9338   -0.1348 C.3       1 <0>         0.0396
     19 H3          0.9665   -2.6453   -1.0368 H         1 <0>         0.0722
     20 C14         1.2224   -2.5551    1.0876 C.2       1 <0>         0.4838
     21 O2          0.6927   -1.9295    1.9901 O.co2     1 <0>        -0.6670
     22 O3          2.3960   -2.8742    1.1742 O.co2     1 <0>        -0.6743
     23 Br1         4.1030    1.8321   -0.4022 Br        1 <0>         0.0442
     24 Br2         1.3764    3.8518    0.3771 Br        1 <0>        -0.0388
     25 H4         -0.9015    1.9094    0.4412 H         1 <0>         0.1568
     26 H5         -3.0906   -2.9891    1.5384 H         1 <0>         0.0674
     27 H6         -3.7019   -2.1746    0.0725 H         1 <0>         0.0839
     28 H7         -5.0785   -4.1814    0.6671 H         1 <0>         0.0620
     29 H8         -4.2997   -4.3489   -0.9193 H         1 <0>         0.0581
     30 H9         -3.3889   -5.5899    1.7025 H         1 <0>         0.0610
     31 H10        -4.0845   -6.4376    0.3069 H         1 <0>         0.0586
     32 H11        -1.5980   -6.6697    0.3925 H         1 <0>         0.0668
     33 H12        -2.1244   -5.7978   -1.0735 H         1 <0>         0.0656
     34 H13         0.8815   -4.9887    0.4927 H         1 <0>         0.0859
     35 H14         0.1813   -4.8575   -1.1552 H         1 <0>         0.0696
@<TRIPOS>BOND
     1    1    5 2
     2    1    2 1
     3    1   25 1
     4    2    3 2
     5    2   24 1
     6    3    4 1
     7    3   23 1
     8    4    5 1
     9    5    6 1
    10    6    7 2
    11    6    8 am
    12    8   18 1
    13    8    9 1
    14    9   10 1
    15    9   15 1
    16    9   11 1
    17   11   12 1
    18   11   26 1
    19   11   27 1
    20   12   13 1
    21   12   28 1
    22   12   29 1
    23   13   14 1
    24   13   30 1
    25   13   31 1
    26   14   15 1
    27   14   32 1
    28   14   33 1
    29   15   16 1
    30   15   17 1
    31   17   18 1
    32   17   34 1
    33   17   35 1
    34   18   19 1
    35   18   20 1
    36   20   21 2
    37   20   22 1
@<TRIPOS>MOLECULE
ZINC48440655
   29    31     0     0     0
SMALL
USER_CHARGES

@<TRIPOS>ATOM
      1 C1         -0.0168    1.3840    0.0097 C.ar      1 <0>        -0.2561
      2 C2          1.1701    2.0918    0.0021 C.ar      1 <0>        -0.0536
      3 C3          2.3824    1.4192   -0.0127 C.ar      1 <0>        -0.0576
      4 C4          2.4046    0.0292   -0.0180 C.ar      1 <0>         0.0921
      5 C5          1.2140   -0.6808   -0.0118 C.ar      1 <0>        -0.1770
      6 C6          0.0021   -0.0041    0.0020 C.ar      1 <0>         0.2887
      7 N1         -1.1998   -0.7206    0.0082 N.2       1 <0>        -1.0881
      8 S1         -2.6453    0.0873    0.0247 S.o2      1 <0>         2.6241
      9 O1         -2.7206    0.7595    1.2744 O.2       1 <0>        -1.0058
     10 O2         -2.7415    0.7729   -1.2162 O.2       1 <0>        -1.0056
     11 C7         -3.9212   -1.1279    0.0289 C.2       1 <0>        -0.6465
     12 C8         -5.2659   -0.9540    0.0355 C.2       1 <0>        -0.0283
     13 C9         -6.0856   -2.0675    0.0372 C.2       1 <0>        -0.1637
     14 C10        -5.5205   -3.2997    0.0322 C.2       1 <0>        -0.1746
     15 S2         -3.7789   -2.9074    0.0175 S.3       1 <0>         0.2220
     16 Br1        -6.0089    0.7849    0.0430 Br        1 <0>        -0.0315
     17 O3          3.5851   -0.6485   -0.0247 O.3       1 <0>        -0.3135
     18 C11         4.7499    0.0910   -0.4069 C.3       1 <0>         0.0233
     19 C12         4.7348    1.4314    0.3404 C.3       1 <0>         0.0244
     20 O4          3.5419    2.1343   -0.0242 O.3       1 <0>        -0.3169
     21 H1         -0.9593    1.9109    0.0260 H         1 <0>         0.1070
     22 H2          1.1533    3.1717    0.0075 H         1 <0>         0.1178
     23 H3          1.2293   -1.7606   -0.0185 H         1 <0>         0.1268
     24 H4         -7.1599   -1.9573    0.0428 H         1 <0>         0.1445
     25 H5         -5.9996   -4.2676    0.0326 H         1 <0>         0.1964
     26 H6          5.6455   -0.4693   -0.1385 H         1 <0>         0.1091
     27 H7          4.7357    0.2694   -1.4821 H         1 <0>         0.0695
     28 H8          4.7422    1.2529    1.4157 H         1 <0>         0.0659
     29 H9          5.6084    2.0192    0.0587 H         1 <0>         0.1073
@<TRIPOS>BOND
     1    1    6 ar
     2    1    2 ar
     3    1   21 1
     4    2    3 ar
     5    2   22 1
     6    3   20 1
     7    3    4 ar
     8    4    5 ar
     9    4   17 1
    10    5    6 ar
    11    5   23 1
    12    6    7 1
    13    7    8 1
    14    8    9 2
    15    8   10 2
    16    8   11 1
    17   11   15 1
    18   11   12 2
    19   12   13 1
    20   12   16 1
    21   13   14 2
    22   13   24 1
    23   14   15 1
    24   14   25 1
    25   17   18 1
    26   18   19 1
    27   18   26 1
    28   18   27 1
    29   19   20 1
    30   19   28 1
    31   19   29 1
@<TRIPOS>MOLECULE
ZINC55759587
   42    44     0     0     0
SMALL
USER_CHARGES

@<TRIPOS>ATOM
      1 C1         -0.0184    1.5028    0.0103 C.3       1 <0>        -0.0797
      2 C2          0.0021   -0.0041    0.0020 C.2       1 <0>         0.1114
      3 C3          0.0064   -0.7050   -1.1571 C.2       1 <0>        -0.2859
      4 S1          0.0326   -2.3782   -0.5350 S.3       1 <0>         0.0593
      5 C4          0.0353   -2.0159    1.1085 C.2       1 <0>         0.3248
      6 N1          0.0222   -0.7000    1.1252 N.2       1 <0>        -0.5898
      7 N2          0.0526   -2.8908    2.1834 N.pl3     1 <0>        -0.5576
      8 C5          0.0779   -4.3354    1.9084 C.3       1 <0>         0.1267
      9 C6          1.0573   -5.0889    2.8121 C.3       1 <0>        -0.1501
     10 C7          2.3395   -4.2981    2.9752 C.3       1 <0>         0.1222
     11 N3          2.1569   -3.3639    4.0861 N.am      1 <0>        -0.6133
     12 C8          1.5121   -2.1017    3.9791 C.3       1 <0>         0.0905
     13 C9          0.0506   -2.3354    3.5255 C.3       1 <0>         0.1140
     14 C10         2.6324   -3.7252    5.2943 C.2       1 <0>         0.5020
     15 O1          3.1894   -4.7937    5.4320 O.2       1 <0>        -0.5108
     16 C11         2.4719   -2.8015    6.4742 C.3       1 <0>        -0.0259
     17 C12         3.0845   -3.4362    7.6960 C.2       1 <0>        -0.2699
     18 C13         4.3493   -3.3476    8.1731 C.2       1 <0>         0.1102
     19 N4          4.6222   -4.0152    9.2801 N.2       1 <0>        -0.5746
     20 C14         3.6988   -4.7324    9.8858 C.2       1 <0>         0.2786
     21 S2          3.8465   -5.6903   11.3573 S.3       1 <0>        -0.7512
     22 S3          2.3412   -4.5054    8.9173 S.3       1 <0>         0.0048
     23 C15         5.3989   -2.5244    7.4719 C.3       1 <0>        -0.0731
     24 H1          1.0042    1.8801    0.0026 H         1 <0>         0.0735
     25 H2         -0.5455    1.8639   -0.8728 H         1 <0>         0.0724
     26 H3         -0.5286    1.8543    0.9071 H         1 <0>         0.0730
     27 H4         -0.0037   -0.3495   -2.1769 H         1 <0>         0.1880
     28 H5         -0.9229   -4.7403    2.0585 H         1 <0>         0.0729
     29 H6          0.3666   -4.4911    0.8689 H         1 <0>         0.0779
     30 H7          0.6009   -5.2418    3.7901 H         1 <0>         0.0792
     31 H8          1.2852   -6.0580    2.3681 H         1 <0>         0.0924
     32 H9          3.1646   -4.9754    3.1954 H         1 <0>         0.0959
     33 H10         2.5502   -3.7451    2.0598 H         1 <0>         0.0693
     34 H11         1.5209   -1.6026    4.9481 H         1 <0>         0.1034
     35 H12         2.0297   -1.4872    3.2425 H         1 <0>         0.0705
     36 H13        -0.4838   -1.3854    3.5269 H         1 <0>         0.0966
     37 H14        -0.4361   -3.0317    4.2084 H         1 <0>         0.0854
     38 H15         2.9727   -1.8560    6.2661 H         1 <0>         0.1016
     39 H16         1.4119   -2.6199    6.6519 H         1 <0>         0.0962
     40 H17         5.3835   -1.5069    7.8625 H         1 <0>         0.0642
     41 H18         6.3810   -2.9648    7.6440 H         1 <0>         0.0666
     42 H19         5.1914   -2.5060    6.4020 H         1 <0>         0.0580
@<TRIPOS>BOND
     1    1    2 1
     2    1   24 1
     3    1   25 1
     4    1   26 1
     5    2    6 1
     6    2    3 2
     7    3    4 1
     8    3   27 1
     9    4    5 1
    10    5    6 2
    11    5    7 1
    12    7   13 1
    13    7    8 1
    14    8    9 1
    15    8   28 1
    16    8   29 1
    17    9   10 1
    18    9   30 1
    19    9   31 1
    20   10   11 1
    21   10   32 1
    22   10   33 1
    23   11   12 1
    24   11   14 am
    25   12   13 1
    26   12   34 1
    27   12   35 1
    28   13   36 1
    29   13   37 1
    30   14   15 2
    31   14   16 1
    32   16   17 1
    33   16   38 1
    34   16   39 1
    35   17   22 1
    36   17   18 2
    37   18   19 1
    38   18   23 1
    39   19   20 2
    40   20   21 1
    41   20   22 1
    42   23   40 1
    43   23   41 1
    44   23   42 1
@<TRIPOS>MOLECULE
ZINC64883874
   45    47     0     0     0
SMALL
USER_CHARGES

@<TRIPOS>ATOM
      1 C1         -0.1510    1.6006   -1.2106 C.3       1 <0>        -0.1154
      2 C2         -0.0712    0.1299   -0.8921 C.ar      1 <0>        -0.0833
      3 C3         -0.1656   -0.8034   -1.9076 C.ar      1 <0>        -0.1232
      4 C4         -0.0923   -2.1525   -1.6154 C.ar      1 <0>        -0.0870
      5 C5          0.0758   -2.5684   -0.3079 C.ar      1 <0>        -0.1138
      6 C6          0.1711   -1.6352    0.7075 C.ar      1 <0>        -0.1033
      7 C7          0.1021   -0.2859    0.4148 C.ar      1 <0>        -0.1263
      8 C8          0.1547   -4.0392    0.0107 C.3       1 <0>         0.1576
      9 N1          1.5511   -4.4779   -0.0502 N.am      1 <0>        -0.6013
     10 C9          2.3891   -4.4231    1.1502 C.3       1 <0>         0.2156
     11 C10         2.1564   -5.6258    1.9664 C.1       1 <0>        -0.2035
     12 C11         1.9709   -6.5850    2.6173 C.1       1 <0>        -0.1812
     13 C12         2.0648   -4.9319   -1.2105 C.2       1 <0>         0.5708
     14 O1          1.4017   -4.8861   -2.2278 O.2       1 <0>        -0.5195
     15 C13         3.4379   -5.4866   -1.2459 C.ar      1 <0>        -0.0764
     16 C14         3.8144   -6.4703   -0.3182 C.ar      1 <0>        -0.1716
     17 C15         5.0705   -6.9957   -0.3304 C.ar      1 <0>        -0.0099
     18 C16         6.0038   -6.5531   -1.2784 C.ar      1 <0>        -0.2234
     19 C17         5.6368   -5.5587   -2.2227 C.ar      1 <0>         0.2155
     20 C18         4.3366   -5.0338   -2.1977 C.ar      1 <0>        -0.0849
     21 N2          6.5409   -5.1468   -3.1228 N.2       1 <0>        -0.5527
     22 C19         7.7629   -5.6566   -3.1367 C.2       1 <0>         0.5032
     23 N3          8.1594   -6.5993   -2.2656 N.pl3     1 <0>        -0.4949
     24 C20         7.3149   -7.0729   -1.3240 C.2       1 <0>         0.5009
     25 O2          7.7130   -8.0164   -0.4528 O.3       1 <0>        -0.6102
     26 C21         9.5267   -7.1204   -2.3377 C.3       1 <0>         0.0529
     27 S1          8.8780   -5.0945   -4.3079 S.2       1 <0>        -0.7097
     28 H1          0.8492    1.9833   -1.4137 H         1 <0>         0.0707
     29 H2         -0.7816    1.7488   -2.0873 H         1 <0>         0.0654
     30 H3         -0.5784    2.1336   -0.3613 H         1 <0>         0.0644
     31 H4         -0.2969   -0.4784   -2.9291 H         1 <0>         0.1212
     32 H5         -0.1667   -2.8816   -2.4087 H         1 <0>         0.1304
     33 H6          0.3021   -1.9601    1.7290 H         1 <0>         0.1195
     34 H7          0.1803    0.4433    1.2076 H         1 <0>         0.1198
     35 H8         -0.2383   -4.2157    1.0120 H         1 <0>         0.0864
     36 H9         -0.4344   -4.6002   -0.7148 H         1 <0>         0.0933
     37 H10         3.4386   -4.3791    0.8590 H         1 <0>         0.1125
     38 H11         2.1355   -3.5357    1.7302 H         1 <0>         0.1008
     39 H12         1.8049   -7.4429    3.1995 H         1 <0>         0.2181
     40 H13         3.0992   -6.8144    0.4143 H         1 <0>         0.1307
     41 H14         5.3475   -7.7519    0.3893 H         1 <0>         0.1341
     42 H15         4.0397   -4.2801   -2.9119 H         1 <0>         0.1393
     43 H16        10.0608   -6.6279   -3.1502 H         1 <0>         0.1288
     44 H17        10.0395   -6.9265   -1.3956 H         1 <0>         0.0699
     45 H18         9.4970   -8.1945   -2.5208 H         1 <0>         0.0698
@<TRIPOS>BOND
     1    1    2 1
     2    1   28 1
     3    1   29 1
     4    1   30 1
     5    2    7 ar
     6    2    3 ar
     7    3    4 ar
     8    3   31 1
     9    4    5 ar
    10    4   32 1
    11    5    6 ar
    12    5    8 1
    13    6    7 ar
    14    6   33 1
    15    7   34 1
    16    8    9 1
    17    8   35 1
    18    8   36 1
    19    9   10 1
    20    9   13 am
    21   10   11 1
    22   10   37 1
    23   10   38 1
    24   11   12 3
    25   12   39 1
    26   13   14 2
    27   13   15 1
    28   15   20 ar
    29   15   16 ar
    30   16   17 ar
    31   16   40 1
    32   17   18 ar
    33   17   41 1
    34   18   24 2
    35   18   19 ar
    36   19   20 ar
    37   19   21 2
    38   20   42 1
    39   21   22 1
    40   22   23 1
    41   22   27 2
    42   23   24 1
    43   23   26 1
    44   24   25 1
    45   26   43 1
    46   26   44 1
    47   26   45 1
@<TRIPOS>MOLECULE
ZINC13449454
   42    45     0     0     0
SMALL
USER_CHARGES
1-[(E)-3-(5-chloro-2,3-dihydro-1,4-benzodioxin-7-yl)prop-2-enoyl]indoline-5-carboxylic acid
@<TRIPOS>ATOM
      1 C1          4.8508   -3.6136   -0.0598 C.ar      1 <0>        -0.0538
      2 C2          3.4781   -3.5627   -0.0475 C.ar      1 <0>        -0.1425
      3 C3          2.8134   -2.3312   -0.0362 C.ar      1 <0>         0.1282
      4 C4          3.5576   -1.1578   -0.0380 C.ar      1 <0>        -0.1543
      5 C5          4.9335   -1.1996   -0.0499 C.ar      1 <0>        -0.0473
      6 C6          5.5959   -2.4307   -0.0616 C.ar      1 <0>        -0.1274
      7 C7          7.0694   -2.4811   -0.0747 C.2       1 <0>         0.4922
      8 O1          7.7126   -1.4502   -0.0762 O.co2     1 <0>        -0.6336
      9 C8          2.6030    0.0154   -0.0248 C.3       1 <0>        -0.0812
     10 C9          1.2057   -0.6258   -0.0151 C.3       1 <0>         0.1010
     11 N1          1.4457   -2.0710   -0.0231 N.am      1 <0>        -0.5437
     12 C10         0.4816   -3.0128   -0.0189 C.2       1 <0>         0.5512
     13 O2          0.7791   -4.1888   -0.1198 O.2       1 <0>        -0.5207
     14 C11        -0.9215   -2.6220    0.1070 C.2       1 <0>        -0.1950
     15 C12        -1.8790   -3.5681    0.2132 C.2       1 <0>        -0.0191
     16 C13        -3.2897   -3.1751    0.3398 C.ar      1 <0>        -0.0530
     17 C14        -4.2846   -4.1536    0.4442 C.ar      1 <0>        -0.0841
     18 C15        -5.6098   -3.7802    0.5675 C.ar      1 <0>         0.0613
     19 C16        -5.9549   -2.4307    0.5794 C.ar      1 <0>         0.0677
     20 C17        -4.9671   -1.4574    0.4699 C.ar      1 <0>        -0.0327
     21 C18        -3.6432   -1.8213    0.3505 C.ar      1 <0>        -0.0904
     22 Cl1        -5.4037    0.2227    0.4844 Cl        1 <0>        -0.0448
     23 O3         -7.2543   -2.0471    0.7003 O.3       1 <0>        -0.2931
     24 C19        -8.2475   -3.0427    0.4325 C.3       1 <0>         0.0186
     25 C20        -7.8453   -4.3315    1.1620 C.3       1 <0>         0.0188
     26 O4         -6.5658   -4.7442    0.6696 O.3       1 <0>        -0.3001
     27 H1          5.3552   -4.5686   -0.0636 H         1 <0>         0.1368
     28 H2          2.9078   -4.4798   -0.0463 H         1 <0>         0.1340
     29 H3          5.5015   -0.2810   -0.0508 H         1 <0>         0.1301
     30 H4          2.7361    0.6243   -0.9190 H         1 <0>         0.0883
     31 H5          2.7519    0.6170    0.8719 H         1 <0>         0.0883
     32 H6          0.6480   -0.3302   -0.9037 H         1 <0>         0.0815
     33 H7          0.6638   -0.3376    0.8856 H         1 <0>         0.0816
     34 H8         -1.1922   -1.5765    0.1151 H         1 <0>         0.1326
     35 H9         -1.6083   -4.6136    0.2052 H         1 <0>         0.1445
     36 H10        -4.0168   -5.1998    0.4326 H         1 <0>         0.1492
     37 H11        -2.8796   -1.0624    0.2649 H         1 <0>         0.1488
     38 H12        -9.2169   -2.7018    0.7959 H         1 <0>         0.1269
     39 H13        -8.3017   -3.2284   -0.6402 H         1 <0>         0.0818
     40 H14        -7.7835   -4.1433    2.2339 H         1 <0>         0.0814
     41 H15        -8.5833   -5.1098    0.9674 H         1 <0>         0.1266
     42 O5          7.7028   -3.6704   -0.0851 O.co2     1 <0>        -0.7546
@<TRIPOS>BOND
     1    1    6 ar
     2    1    2 ar
     3    1   27 1
     4    2    3 ar
     5    2   28 1
     6    3   11 1
     7    3    4 ar
     8    4    5 ar
     9    4    9 1
    10    5    6 ar
    11    5   29 1
    12    6    7 1
    13    7    8 2
    14    7   42 1
    15    9   10 1
    16    9   30 1
    17    9   31 1
    18   10   11 1
    19   10   32 1
    20   10   33 1
    21   11   12 am
    22   12   13 2
    23   12   14 1
    24   14   15 2
    25   14   34 1
    26   15   16 1
    27   15   35 1
    28   16   21 ar
    29   16   17 ar
    30   17   18 ar
    31   17   36 1
    32   18   26 1
    33   18   19 ar
    34   19   20 ar
    35   19   23 1
    36   20   21 ar
    37   20   22 1
    38   21   37 1
    39   23   24 1
    40   24   25 1
    41   24   38 1
    42   24   39 1
    43   25   26 1
    44   25   40 1
    45   25   41 1
@<TRIPOS>MOLECULE
ZINC09243342
   47    51     0     0     0
SMALL
USER_CHARGES

@<TRIPOS>ATOM
      1 C1         -5.2052    1.7022    2.9808 C.3       1 <0>        -0.1490
      2 C2         -4.0500    0.6991    2.9632 C.3       1 <0>         0.0753
      3 H1         -3.0962    1.2130    2.8434 H         1 <0>         0.0856
      4 C3         -4.2519   -0.3493    1.8436 C.3       1 <0>        -0.1025
      5 C4         -3.7066   -1.6076    2.4915 C.ar      1 <0>        -0.1922
      6 C5         -3.3352   -2.8227    1.9720 C.ar      1 <0>        -0.0211
      7 C6         -2.8487   -3.8233    2.8201 C.ar      1 <0>        -0.1649
      8 C7         -2.7463   -3.5723    4.1919 C.ar      1 <0>        -0.0297
      9 C8         -3.1248   -2.3535    4.7018 C.ar      1 <0>        -0.1518
     10 C9         -3.6136   -1.3545    3.8575 C.ar      1 <0>         0.1198
     11 O1         -4.0513   -0.0999    4.1581 O.3       1 <0>        -0.3027
     12 C10        -2.4470   -5.1335    2.2713 C.2       1 <0>         0.5115
     13 C11        -1.8638   -6.1495    3.1523 C.2       1 <0>        -0.4857
     14 C12        -0.5385   -6.0642    3.8729 C.3       1 <0>         0.2667
     15 H2         -0.5377   -5.2154    4.5569 H         1 <0>         0.0845
     16 N1         -0.4001   -7.3176    4.6238 N.am      1 <0>        -0.5062
     17 C13        -1.4953   -8.0631    4.3896 C.2       1 <0>         0.5111
     18 O2         -1.7025   -9.1645    4.8597 O.2       1 <0>        -0.4919
     19 C14        -2.4113   -7.3432    3.4822 C.2       1 <0>         0.2694
     20 O3         -3.6065   -7.8044    3.0469 O.3       1 <0>        -0.6378
     21 C15         0.6711   -7.6713    5.4320 C.2       1 <0>         0.3056
     22 N2          1.7587   -6.9796    5.6974 N.2       1 <0>        -0.5572
     23 C16         2.6949   -7.4596    6.4940 C.2       1 <0>         0.0689
     24 C17         2.4833   -8.6910    7.0217 C.2       1 <0>        -0.2900
     25 S1          0.8913   -9.0861    6.3165 S.3       1 <0>         0.1505
     26 C18         0.5849   -5.9296    2.8775 C.ar      1 <0>        -0.0612
     27 C19         0.9767   -7.0215    2.1257 C.ar      1 <0>        -0.0917
     28 C20         2.0073   -6.8981    1.2127 C.ar      1 <0>        -0.1212
     29 C21         2.6457   -5.6827    1.0510 C.ar      1 <0>        -0.1272
     30 C22         2.2532   -4.5906    1.8022 C.ar      1 <0>        -0.1221
     31 C23         1.2199   -4.7129    2.7122 C.ar      1 <0>        -0.1016
     32 O4         -2.6002   -5.3701    1.0873 O.2       1 <0>        -0.4686
     33 H3         -5.0650    2.4033    3.8036 H         1 <0>         0.0669
     34 H4         -5.2265    2.2484    2.0378 H         1 <0>         0.0776
     35 H5         -6.1469    1.1696    3.1137 H         1 <0>         0.0671
     36 H6         -5.3086   -0.4622    1.6015 H         1 <0>         0.0896
     37 H7         -3.6761   -0.0872    0.9560 H         1 <0>         0.0899
     38 H8         -3.4188   -3.0060    0.9110 H         1 <0>         0.1324
     39 H9         -2.3690   -4.3387    4.8528 H         1 <0>         0.1414
     40 H10        -3.0432   -2.1671    5.7625 H         1 <0>         0.1294
     41 H11         3.5899   -6.8971    6.7155 H         1 <0>         0.1685
     42 H12         3.1048   -9.2710    7.6879 H         1 <0>         0.1906
     43 H13         0.4780   -7.9711    2.2520 H         1 <0>         0.1097
     44 H14         2.3138   -7.7513    0.6258 H         1 <0>         0.1154
     45 H15         3.4512   -5.5864    0.3382 H         1 <0>         0.1146
     46 H16         2.7522   -3.6411    1.6761 H         1 <0>         0.1163
     47 H17         0.9108   -3.8587    3.2963 H         1 <0>         0.1181
@<TRIPOS>BOND
     1    1    2 1
     2    1   33 1
     3    1   34 1
     4    1   35 1
     5    2    3 1
     6    2   11 1
     7    2    4 1
     8    4    5 1
     9    4   36 1
    10    4   37 1
    11    5   10 ar
    12    5    6 ar
    13    6    7 ar
    14    6   38 1
    15    7    8 ar
    16    7   12 1
    17    8    9 ar
    18    8   39 1
    19    9   10 ar
    20    9   40 1
    21   10   11 1
    22   12   13 1
    23   12   32 2
    24   13   19 2
    25   13   14 1
    26   14   16 1
    27   14   26 1
    28   14   15 1
    29   16   21 1
    30   16   17 am
    31   17   18 2
    32   17   19 1
    33   19   20 1
    34   21   25 1
    35   21   22 2
    36   22   23 1
    37   23   24 2
    38   23   41 1
    39   24   25 1
    40   24   42 1
    41   26   31 ar
    42   26   27 ar
    43   27   28 ar
    44   27   43 1
    45   28   29 ar
    46   28   44 1
    47   29   30 ar
    48   29   45 1
    49   30   31 ar
    50   30   46 1
    51   31   47 1
@<TRIPOS>MOLECULE
ZINC40693136
   28    29     0     0     0
SMALL
USER_CHARGES

@<TRIPOS>ATOM
      1 C1         -0.0167    1.3780    0.0096 C.ar      1 <0>        -0.1333
      2 C2          1.1709    2.0859    0.0021 C.ar      1 <0>        -0.0739
      3 C3          2.3773    1.4120   -0.0131 C.ar      1 <0>        -0.1186
      4 C4          2.3966    0.0286   -0.0207 C.ar      1 <0>         0.0095
      5 C5          1.2084   -0.6791   -0.0132 C.ar      1 <0>        -0.5994
      6 C6          0.0021   -0.0041    0.0020 C.ar      1 <0>        -0.0250
      7 S1          1.2321   -2.4409   -0.0235 S.o2      1 <0>         2.5985
      8 O1          2.1433   -2.8407    0.9910 O.2       1 <0>        -0.9976
      9 O2         -0.1240   -2.8653   -0.0398 O.2       1 <0>        -1.0183
     10 N1          1.8932   -2.9133   -1.4665 N.2       1 <0>        -1.0129
     11 C7          2.0396   -4.2722   -1.7563 C.ar      1 <0>         0.3427
     12 C8          1.6259   -5.2284   -0.8373 C.ar      1 <0>        -0.2477
     13 C9          1.7719   -6.5707   -1.1264 C.ar      1 <0>         0.0027
     14 C10         2.3302   -6.9638   -2.3300 C.ar      1 <0>        -0.1930
     15 C11         2.7435   -6.0140   -3.2469 C.ar      1 <0>         0.0218
     16 C12         2.5939   -4.6699   -2.9660 C.ar      1 <0>        -0.1208
     17 N2          3.0303   -3.6543   -3.9503 N.pl3     1 <0>         0.0615
     18 O3          3.5127   -4.0011   -5.0032 O.2       1 <0>        -0.2600
     19 O4          2.9044   -2.4779   -3.7013 O.3       1 <0>        -0.1075
     20 Br1         2.5290   -8.8030   -2.7220 Br        1 <0>        -0.0665
     21 Br2         4.0470   -0.8942   -0.0421 Br        1 <0>        -0.0121
     22 H1         -0.9592    1.9050    0.0260 H         1 <0>         0.1335
     23 H2          1.1558    3.1658    0.0077 H         1 <0>         0.1340
     24 H3          3.3049    1.9651   -0.0193 H         1 <0>         0.1371
     25 H4         -0.9258   -0.5567    0.0083 H         1 <0>         0.1457
     26 H5          1.1908   -4.9221    0.1026 H         1 <0>         0.1256
     27 H6          1.4504   -7.3144   -0.4123 H         1 <0>         0.1310
     28 H7          3.1792   -6.3237   -4.1854 H         1 <0>         0.1432
@<TRIPOS>BOND
     1    1    6 ar
     2    1    2 ar
     3    1   22 1
     4    2    3 ar
     5    2   23 1
     6    3    4 ar
     7    3   24 1
     8    4    5 ar
     9    4   21 1
    10    5    6 ar
    11    5    7 1
    12    6   25 1
    13    7    8 2
    14    7    9 2
    15    7   10 1
    16   10   11 1
    17   11   16 ar
    18   11   12 ar
    19   12   13 ar
    20   12   26 1
    21   13   14 ar
    22   13   27 1
    23   14   15 ar
    24   14   20 1
    25   15   16 ar
    26   15   28 1
    27   16   17 1
    28   17   18 2
    29   17   19 1
@<TRIPOS>MOLECULE
ZINC59138126
   51    54     0     0     0
SMALL
USER_CHARGES

@<TRIPOS>ATOM
      1 C1          0.1929    1.4372    0.3629 C.3       1 <0>        -0.1085
      2 C2          0.1551   -0.0682    0.4217 C.ar      1 <0>        -0.0841
      3 C3          0.5145   -0.8113   -0.6879 C.ar      1 <0>        -0.1186
      4 C4          0.4813   -2.1909   -0.6371 C.ar      1 <0>        -0.0832
      5 C5          0.0864   -2.8320    0.5299 C.ar      1 <0>         0.1534
      6 C6         -0.2738   -2.0832    1.6421 C.ar      1 <0>        -0.0512
      7 C7         -0.2334   -0.7035    1.5866 C.ar      1 <0>        -0.1150
      8 C8         -0.7029   -2.7749    2.9104 C.3       1 <0>        -0.1107
      9 N1          0.0512   -4.2313    0.5845 N.am      1 <0>        -0.5079
     10 C9         -1.0767   -4.8880    0.2363 C.2       1 <0>         0.5585
     11 O1         -2.0691   -4.2825   -0.1264 O.2       1 <0>        -0.5118
     12 C10        -1.0689   -6.3560    0.3081 C.2       1 <0>        -0.2837
     13 C11        -2.2001   -7.1059   -0.0374 C.2       1 <0>         0.1212
     14 C12        -2.1094   -8.4910   -0.1506 C.2       1 <0>        -0.0618
     15 C13        -3.0520   -9.4136    0.3018 C.2       1 <0>        -0.0911
     16 C14        -2.5631  -10.6739   -0.0160 C.2       1 <0>        -0.3145
     17 C15        -1.3471  -10.4920   -0.6479 C.2       1 <0>         0.3395
     18 O2         -1.0937   -9.1772   -0.7243 O.3       1 <0>        -0.1308
     19 N2         -0.5349  -11.4926   -1.1237 N.pl3     1 <0>        -0.5830
     20 C16        -0.9276  -12.9021   -0.9911 C.3       1 <0>         0.1338
     21 C17        -0.8718  -13.5615   -2.3727 C.3       1 <0>        -0.1372
     22 C18         0.5176  -13.3504   -2.9786 C.3       1 <0>        -0.1197
     23 C19         0.7800  -11.8522   -3.1475 C.3       1 <0>        -0.1367
     24 C20         0.7401  -11.1731   -1.7801 C.3       1 <0>         0.1184
     25 C21         0.1289   -6.9863    0.7405 C.2       1 <0>         0.4880
     26 O3          0.2007   -8.3326    0.8276 O.3       1 <0>        -0.5802
     27 N3          1.1728   -6.2381    1.0562 N.2       1 <0>        -0.6002
     28 C22         1.1409   -4.9110    0.9775 C.2       1 <0>         0.5456
     29 S1          2.5470   -4.0310    1.4013 S.2       1 <0>        -0.6711
     30 H1          1.1788    1.7880    0.6679 H         1 <0>         0.0684
     31 H2         -0.0107    1.7663   -0.6561 H         1 <0>         0.0629
     32 H3         -0.5620    1.8461    1.0345 H         1 <0>         0.0627
     33 H4          0.8211   -0.3122   -1.5953 H         1 <0>         0.1220
     34 H5          0.7617   -2.7707   -1.5040 H         1 <0>         0.1175
     35 H6         -0.5093   -0.1205    2.4529 H         1 <0>         0.1224
     36 H7          0.1690   -2.9532    3.5398 H         1 <0>         0.0791
     37 H8         -1.4142   -2.1452    3.4448 H         1 <0>         0.0654
     38 H9         -1.1738   -3.7265    2.6638 H         1 <0>         0.0538
     39 H10        -3.1427   -6.6101   -0.2160 H         1 <0>         0.1582
     40 H11        -3.9825   -9.1910    0.8027 H         1 <0>         0.1520
     41 H12        -3.0429  -11.6189    0.1916 H         1 <0>         0.1453
     42 H13        -0.2402  -13.4110   -0.3154 H         1 <0>         0.0708
     43 H14        -1.9423  -12.9634   -0.5977 H         1 <0>         0.0867
     44 H15        -1.0674  -14.6293   -2.2744 H         1 <0>         0.0768
     45 H16        -1.6237  -13.1117   -3.0212 H         1 <0>         0.0682
     46 H17         1.2709  -13.7788   -2.3175 H         1 <0>         0.0654
     47 H18         0.5677  -13.8398   -3.9513 H         1 <0>         0.0648
     48 H19         1.7601  -11.7033   -3.6006 H         1 <0>         0.0768
     49 H20         0.0126  -11.4184   -3.7886 H         1 <0>         0.0656
     50 H21         0.8254  -10.0939   -1.9071 H         1 <0>         0.0879
     51 H22         1.5666  -11.5378   -1.1702 H         1 <0>         0.0699
@<TRIPOS>BOND
     1    1    2 1
     2    1   30 1
     3    1   31 1
     4    1   32 1
     5    2    7 ar
     6    2    3 ar
     7    3    4 ar
     8    3   33 1
     9    4    5 ar
    10    4   34 1
    11    5    6 ar
    12    5    9 1
    13    6    7 ar
    14    6    8 1
    15    7   35 1
    16    8   36 1
    17    8   37 1
    18    8   38 1
    19    9   28 1
    20    9   10 am
    21   10   11 2
    22   10   12 1
    23   12   13 2
    24   12   25 1
    25   13   14 1
    26   13   39 1
    27   14   18 1
    28   14   15 2
    29   15   16 1
    30   15   40 1
    31   16   17 2
    32   16   41 1
    33   17   18 1
    34   17   19 1
    35   19   24 1
    36   19   20 1
    37   20   21 1
    38   20   42 1
    39   20   43 1
    40   21   22 1
    41   21   44 1
    42   21   45 1
    43   22   23 1
    44   22   46 1
    45   22   47 1
    46   23   24 1
    47   23   48 1
    48   23   49 1
    49   24   50 1
    50   24   51 1
    51   25   26 1
    52   25   27 2
    53   27   28 1
    54   28   29 2
@<TRIPOS>MOLECULE
ZINC17198091
   45    48     0     0     0
SMALL
USER_CHARGES

@<TRIPOS>ATOM
      1 C1         -1.1588   -1.5620   -1.3146 C.3       1 <0>        -0.1741
      2 C2         -0.5659   -2.9446   -1.0358 C.3       1 <0>         0.1362
      3 N1          0.4158   -3.2730   -2.0724 N.pl3     1 <0>        -0.6262
      4 C3          0.1083   -3.9609   -3.3286 C.3       1 <0>         0.1216
      5 C4          1.4517   -4.0708   -4.0683 C.3       1 <0>        -0.0799
      6 C5          2.4478   -3.4131   -3.1391 C.ar      1 <0>        -0.1848
      7 C6          1.7684   -2.9717   -2.0071 C.ar      1 <0>         0.2181
      8 C7          2.4800   -2.3181   -0.9910 C.ar      1 <0>        -0.1991
      9 C8          3.8207   -2.1110   -1.1079 C.ar      1 <0>        -0.0386
     10 C9          4.5030   -2.5530   -2.2528 C.ar      1 <0>        -0.1491
     11 C10         3.7921   -3.2160   -3.2662 C.ar      1 <0>         0.0370
     12 C11         5.9414   -2.3329   -2.3845 C.2       1 <0>         0.0718
     13 C12         6.4687   -1.9094   -3.5911 C.2       1 <0>        -0.2855
     14 C13         7.9253   -1.9217   -3.8457 C.2       1 <0>         0.5424
     15 N2          8.3675   -1.4964   -5.0402 N.2       1 <0>        -0.6675
     16 C14         7.5507   -1.0763   -5.9735 C.2       1 <0>         0.6367
     17 O1          8.0791   -0.6669   -7.1433 O.3       1 <0>        -0.6476
     18 N3          6.1989   -1.0301   -5.8290 N.am      1 <0>        -0.5394
     19 C15         5.6039   -1.4307   -4.6851 C.2       1 <0>         0.5624
     20 O2          4.3940   -1.3937   -4.5596 O.2       1 <0>        -0.5040
     21 C16         5.4091   -0.5635   -6.8887 C.ar      1 <0>         0.1861
     22 C17         4.9958    0.7617   -6.9169 C.ar      1 <0>        -0.0973
     23 C18         4.2175    1.2190   -7.9622 C.ar      1 <0>        -0.0829
     24 C19         3.8497    0.3578   -8.9807 C.ar      1 <0>        -0.0931
     25 C20         4.2602   -0.9633   -8.9550 C.ar      1 <0>        -0.0830
     26 C21         5.0433   -1.4242   -7.9149 C.ar      1 <0>        -0.0941
     27 Br1         2.7835    0.9872  -10.4100 Br        1 <0>        -0.0627
     28 O3          8.7056   -2.3080   -2.9920 O.2       1 <0>        -0.5440
     29 H1         -0.3627   -0.8176   -1.3099 H         1 <0>         0.0596
     30 H2         -1.6470   -1.5658   -2.2892 H         1 <0>         0.0558
     31 H3         -1.8893   -1.3177   -0.5433 H         1 <0>         0.0635
     32 H4         -0.0778   -2.9409   -0.0612 H         1 <0>         0.0741
     33 H5         -1.3621   -3.6891   -1.0405 H         1 <0>         0.0732
     34 H6         -0.2947   -4.9534   -3.1273 H         1 <0>         0.0644
     35 H7         -0.6000   -3.3765   -3.9160 H         1 <0>         0.0636
     36 H8          1.7136   -5.1166   -4.2288 H         1 <0>         0.0800
     37 H9          1.4080   -3.5381   -5.0183 H         1 <0>         0.0830
     38 H10         1.9603   -1.9757   -0.1083 H         1 <0>         0.1137
     39 H11         4.3596   -1.6063   -0.3198 H         1 <0>         0.1239
     40 H12         4.3071   -3.5594   -4.1513 H         1 <0>         0.1131
     41 H13         6.5930   -2.5009   -1.5397 H         1 <0>         0.1461
     42 H14         5.2824    1.4342   -6.1219 H         1 <0>         0.1293
     43 H15         3.8955    2.2496   -7.9844 H         1 <0>         0.1334
     44 H16         3.9714   -1.6336   -9.7510 H         1 <0>         0.1338
     45 H17         5.3672   -2.4543   -7.8975 H         1 <0>         0.1303
@<TRIPOS>BOND
     1    1    2 1
     2    1   29 1
     3    1   30 1
     4    1   31 1
     5    2    3 1
     6    2   32 1
     7    2   33 1
     8    3    7 1
     9    3    4 1
    10    4    5 1
    11    4   34 1
    12    4   35 1
    13    5    6 1
    14    5   36 1
    15    5   37 1
    16    6   11 ar
    17    6    7 ar
    18    7    8 ar
    19    8    9 ar
    20    8   38 1
    21    9   10 ar
    22    9   39 1
    23   10   11 ar
    24   10   12 1
    25   11   40 1
    26   12   13 2
    27   12   41 1
    28   13   19 1
    29   13   14 1
    30   14   15 1
    31   14   28 2
    32   15   16 2
    33   16   17 1
    34   16   18 1
    35   18   19 am
    36   18   21 1
    37   19   20 2
    38   21   26 ar
    39   21   22 ar
    40   22   23 ar
    41   22   42 1
    42   23   24 ar
    43   23   43 1
    44   24   25 ar
    45   24   27 1
    46   25   26 ar
    47   25   44 1
    48   26   45 1
@<TRIPOS>MOLECULE
ZINC66579008
   51    54     0     0     0
SMALL
USER_CHARGES

@<TRIPOS>ATOM
      1 C1         -0.0168    1.3854    0.0092 C.ar      1 <0>        -0.2159
      2 C2          1.1664    2.0966   -0.0617 C.ar      1 <0>        -0.0959
      3 C3          2.3776    1.4309   -0.0770 C.ar      1 <0>         0.0265
      4 C4          2.4074    0.0349   -0.0208 C.ar      1 <0>        -0.0217
      5 C5          1.2128   -0.6806    0.0507 C.ar      1 <0>        -0.1388
      6 C6          0.0035   -0.0030    0.0655 C.ar      1 <0>         0.2784
      7 N1         -1.1967   -0.7170    0.1371 N.2       1 <0>        -1.0932
      8 S1         -2.6416    0.0919    0.1549 S.o2      1 <0>         2.5284
      9 O1         -2.6207    0.8451    1.3596 O.2       1 <0>        -1.0297
     10 O2         -2.7077    0.7439   -1.1060 O.2       1 <0>        -1.0230
     11 C7         -3.9026   -1.2084    0.2527 C.3       1 <0>        -0.5539
     12 C8         -3.7047   -2.1983   -0.8970 C.3       1 <0>        -0.0947
     13 C9         -4.7683   -3.2951   -0.8145 C.3       1 <0>        -0.1129
     14 C10        -6.1591   -2.6656   -0.9172 C.3       1 <0>        -0.1212
     15 C11        -6.3570   -1.6757    0.2325 C.3       1 <0>        -0.1088
     16 C12        -5.2934   -0.5789    0.1500 C.3       1 <0>        -0.1091
     17 C13         3.7014   -0.6811   -0.0375 C.2       1 <0>         0.2426
     18 N2          4.7112   -0.4586   -0.8521 N.2       1 <0>        -0.2801
     19 N3          5.6779   -1.2624   -0.5763 N.2       1 <0>        -0.2972
     20 C14         5.3450   -2.0323    0.4214 C.2       1 <0>         0.1673
     21 N4          4.0809   -1.6956    0.7924 N.pl3     1 <0>        -0.4642
     22 C15         3.2907   -2.3152    1.8561 C.3       1 <0>         0.1031
     23 C16         4.2318   -2.8709    2.9289 C.3       1 <0>        -0.1397
     24 C17         4.6140   -4.3093    2.5837 C.3       1 <0>        -0.1231
     25 C18         5.3526   -4.3628    1.2500 C.3       1 <0>        -0.1244
     26 C19         6.1894   -3.0983    1.0708 C.3       1 <0>        -0.0307
     27 F1          3.5319    2.1294   -0.1468 F         1 <0>        -0.1477
     28 H1         -0.9602    1.9108    0.0254 H         1 <0>         0.1133
     29 H2          1.1443    3.1754   -0.1055 H         1 <0>         0.1232
     30 H3          1.2296   -1.7596    0.0940 H         1 <0>         0.1208
     31 H4         -3.8106   -1.7330    1.2037 H         1 <0>         0.1221
     32 H5         -3.7968   -1.6738   -1.8480 H         1 <0>         0.0701
     33 H6         -2.7140   -2.6468   -0.8238 H         1 <0>         0.0894
     34 H7         -4.6273   -4.0003   -1.6336 H         1 <0>         0.0621
     35 H8         -4.6763   -3.8196    0.1365 H         1 <0>         0.0608
     36 H9         -6.2511   -2.1410   -1.8682 H         1 <0>         0.0621
     37 H10        -6.9168   -3.4469   -0.8584 H         1 <0>         0.0587
     38 H11        -7.3477   -1.2272    0.1593 H         1 <0>         0.0621
     39 H12        -6.2649   -2.2002    1.1835 H         1 <0>         0.0626
     40 H13        -5.4344    0.1263    0.9690 H         1 <0>         0.0686
     41 H14        -5.3854   -0.0544   -0.8011 H         1 <0>         0.0735
     42 H15         2.6319   -1.5695    2.3011 H         1 <0>         0.1023
     43 H16         2.6937   -3.1267    1.4401 H         1 <0>         0.0912
     44 H17         5.1317   -2.2576    2.9749 H         1 <0>         0.0791
     45 H18         3.7305   -2.8512    3.8966 H         1 <0>         0.0876
     46 H19         5.2581   -4.7079    3.3675 H         1 <0>         0.0701
     47 H20         3.7105   -4.9156    2.5188 H         1 <0>         0.0700
     48 H21         6.0058   -5.2352    1.2317 H         1 <0>         0.0776
     49 H22         4.6296   -4.4344    0.4374 H         1 <0>         0.0663
     50 H23         7.0531   -3.3130    0.4415 H         1 <0>         0.0974
     51 H24         6.5258   -2.7520    2.0481 H         1 <0>         0.0885
@<TRIPOS>BOND
     1    1    6 ar
     2    1    2 ar
     3    1   28 1
     4    2    3 ar
     5    2   29 1
     6    3    4 ar
     7    3   27 1
     8    4    5 ar
     9    4   17 1
    10    5    6 ar
    11    5   30 1
    12    6    7 1
    13    7    8 1
    14    8    9 2
    15    8   10 2
    16    8   11 1
    17   11   16 1
    18   11   12 1
    19   11   31 1
    20   12   13 1
    21   12   32 1
    22   12   33 1
    23   13   14 1
    24   13   34 1
    25   13   35 1
    26   14   15 1
    27   14   36 1
    28   14   37 1
    29   15   16 1
    30   15   38 1
    31   15   39 1
    32   16   40 1
    33   16   41 1
    34   17   21 1
    35   17   18 2
    36   18   19 1
    37   19   20 2
    38   20   26 1
    39   20   21 1
    40   21   22 1
    41   22   23 1
    42   22   42 1
    43   22   43 1
    44   23   24 1
    45   23   44 1
    46   23   45 1
    47   24   25 1
    48   24   46 1
    49   24   47 1
    50   25   26 1
    51   25   48 1
    52   25   49 1
    53   26   50 1
    54   26   51 1
@<TRIPOS>MOLECULE
ZINC12340244
   60    64     0     0     0
SMALL
USER_CHARGES
(1R,2S,4aS,4bS,8aS,10aS)-2,4b-dimethyl-1-[(Z)-(3-oxoindolin-2-ylidene)methyl]-1,3,4,4a,5,8,8a,9,10,10a-decahydrophenanthrene-2-carboxylic acid
@<TRIPOS>ATOM
      1 C1         -1.2868   -5.6331   -2.7039 C.3       1 <0>        -0.1264
      2 C2         -0.9787   -6.3793   -1.3946 C.3       1 <0>        -0.0883
      3 C3         -2.2789   -6.9406   -0.8357 C.3       1 <0>        -0.0904
      4 C4         -2.0844   -7.6020    0.5166 C.3       1 <0>        -0.1045
      5 C5         -1.3827   -6.7186    1.5359 C.3       1 <0>        -0.0487
      6 H1         -0.9193   -7.4581    2.2617 H         1 <0>         0.0446
      7 C6         -0.2115   -5.9589    0.9780 C.3       1 <0>        -0.0660
      8 H2          0.6027   -6.7526    0.8828 H         1 <0>         0.0835
      9 C7         -0.3330   -5.4003   -0.4181 C.3       1 <0>        -0.0200
     10 H3          0.7039   -5.2267   -0.7934 H         1 <0>         0.0661
     11 C8         -1.0286   -4.0716   -0.4866 C.2       1 <0>        -0.0506
     12 C9         -0.3201   -2.9547   -0.6996 C.2       1 <0>        -0.0053
     13 C10        -0.8551   -1.5803   -0.7921 C.2       1 <0>         0.4368
     14 O1         -2.0172   -1.2320   -0.6922 O.2       1 <0>        -0.4475
     15 C11         0.3183   -0.7212   -1.0312 C.ar      1 <0>        -0.2603
     16 C12         0.4601    0.6573   -1.2055 C.ar      1 <0>        -0.0066
     17 C13         1.7102    1.1951   -1.4170 C.ar      1 <0>        -0.1900
     18 C14         2.8257    0.3717   -1.4563 C.ar      1 <0>        -0.0433
     19 C15         2.7005   -0.9900   -1.2863 C.ar      1 <0>        -0.1826
     20 C16         1.4455   -1.5565   -1.0713 C.ar      1 <0>         0.2284
     21 N1          1.0604   -2.8710   -0.8751 N.pl3     1 <0>        -0.6452
     22 C17         0.4072   -4.9699    1.9586 C.3       1 <0>        -0.1030
     23 C18        -0.6373   -4.1575    2.7115 C.3       1 <0>        -0.1091
     24 C19        -1.6127   -5.0934    3.4239 C.3       1 <0>        -0.0713
     25 H4         -1.0528   -5.7590    4.0925 H         1 <0>         0.0670
     26 C20        -2.3686   -5.9401    2.3942 C.3       1 <0>        -0.0350
     27 C21        -3.2028   -6.9672    3.1905 C.3       1 <0>        -0.0901
     28 C22        -4.0298   -6.2670    4.2248 C.2       1 <0>        -0.1482
     29 C23        -3.7664   -5.0860    4.6855 C.2       1 <0>        -0.1581
     30 C24        -2.5965   -4.2597    4.2443 C.3       1 <0>        -0.0835
     31 C25        -3.3205   -5.0795    1.5700 C.3       1 <0>        -0.1487
     32 C26        -0.0207   -7.5019   -1.7055 C.2       1 <0>         0.4784
     33 O2          1.0748   -7.5198   -1.1960 O.co2     1 <0>        -0.6396
     34 H5         -0.3607   -5.2432   -3.1264 H         1 <0>         0.0425
     35 H6         -1.7491   -6.3196   -3.4132 H         1 <0>         0.0617
     36 H7         -1.9688   -4.8077   -2.4998 H         1 <0>         0.0439
     37 H8         -3.0344   -6.1584   -0.7872 H         1 <0>         0.0523
     38 H9         -2.6574   -7.6988   -1.5435 H         1 <0>         0.0633
     39 H10        -3.0645   -7.9081    0.9090 H         1 <0>         0.0566
     40 H11        -1.5054   -8.5292    0.3896 H         1 <0>         0.0586
     41 H12        -2.1002   -4.0162   -0.3642 H         1 <0>         0.1421
     42 H13        -0.4083    1.2989   -1.1789 H         1 <0>         0.1263
     43 H14         1.8223    2.2607   -1.5521 H         1 <0>         0.1256
     44 H15         3.8022    0.8021   -1.6224 H         1 <0>         0.1276
     45 H16         3.5772   -1.6199   -1.3202 H         1 <0>         0.1266
     46 H17         1.6663   -3.6283   -0.8612 H         1 <0>         0.4229
     47 H18         1.0160   -5.5252    2.6851 H         1 <0>         0.0543
     48 H19         1.0778   -4.2909    1.4213 H         1 <0>         0.0558
     49 H20        -0.1227   -3.5528    3.4735 H         1 <0>         0.0480
     50 H21        -1.1635   -3.4784    2.0537 H         1 <0>         0.0651
     51 H22        -2.5277   -7.6674    3.6766 H         1 <0>         0.0713
     52 H23        -3.8595   -7.4982    2.5055 H         1 <0>         0.0736
     53 H24        -4.9008   -6.7778    4.6085 H         1 <0>         0.0963
     54 H25        -4.4297   -4.6717    5.4290 H         1 <0>         0.0966
     55 H26        -2.0828   -3.8836    5.1363 H         1 <0>         0.0620
     56 H27        -2.9453   -3.4058    3.6680 H         1 <0>         0.0730
     57 H28        -3.7923   -5.6928    0.8022 H         1 <0>         0.0609
     58 H29        -4.0869   -4.6595    2.2213 H         1 <0>         0.0532
     59 H30        -2.7625   -4.2712    1.0973 H         1 <0>         0.0612
     60 O3         -0.3851   -8.4812   -2.5481 O.co2     1 <0>        -0.7638
@<TRIPOS>BOND
     1    1    2 1
     2    1   34 1
     3    1   35 1
     4    1   36 1
     5    2    9 1
     6    2    3 1
     7    2   32 1
     8    3    4 1
     9    3   37 1
    10    3   38 1
    11    4    5 1
    12    4   39 1
    13    4   40 1
    14    5    6 1
    15    5   26 1
    16    5    7 1
    17    7    8 1
    18    7    9 1
    19    7   22 1
    20    9   10 1
    21    9   11 1
    22   11   12 2
    23   11   41 1
    24   12   21 1
    25   12   13 1
    26   13   14 2
    27   13   15 1
    28   15   20 ar
    29   15   16 ar
    30   16   17 ar
    31   16   42 1
    32   17   18 ar
    33   17   43 1
    34   18   19 ar
    35   18   44 1
    36   19   20 ar
    37   19   45 1
    38   20   21 1
    39   21   46 1
    40   22   23 1
    41   22   47 1
    42   22   48 1
    43   23   24 1
    44   23   49 1
    45   23   50 1
    46   24   25 1
    47   24   30 1
    48   24   26 1
    49   26   27 1
    50   26   31 1
    51   27   28 1
    52   27   51 1
    53   27   52 1
    54   28   29 2
    55   28   53 1
    56   29   30 1
    57   29   54 1
    58   30   55 1
    59   30   56 1
    60   31   57 1
    61   31   58 1
    62   31   59 1
    63   32   33 2
    64   32   60 1
@<TRIPOS>MOLECULE
ZINC32601909
   27    28     0     0     0
SMALL
USER_CHARGES
2,4,5-trichloro-N-(3-hydroxyphenyl)benzenesulfonamide
@<TRIPOS>ATOM
      1 C1         -3.4796    6.5462   -0.8268 C.ar      1 <0>        -0.0444
      2 C2         -2.1927    6.0620   -0.9607 C.ar      1 <0>        -0.2732
      3 C3         -1.4216    5.8152    0.1684 C.ar      1 <0>         0.2843
      4 C4         -1.9460    6.0563    1.4311 C.ar      1 <0>        -0.2075
      5 C5         -3.2350    6.5482    1.5606 C.ar      1 <0>         0.1751
      6 C6         -4.0029    6.7871    0.4291 C.ar      1 <0>        -0.2906
      7 O1         -3.7492    6.7910    2.7949 O.3       1 <0>        -0.5165
      8 N1         -0.1205    5.3256    0.0333 N.2       1 <0>        -1.0313
      9 S1          0.9068    6.0000   -1.0767 S.o2      1 <0>         2.5755
     10 O2          0.8059    7.4087   -0.9202 O.2       1 <0>        -1.0237
     11 O3          2.1420    5.3071   -0.9604 O.2       1 <0>        -0.9745
     12 C7          0.2669    5.6237   -2.6747 C.ar      1 <0>        -0.6358
     13 C8         -0.1544    6.6432   -3.5078 C.ar      1 <0>        -0.0023
     14 C9         -0.6568    6.3485   -4.7623 C.ar      1 <0>        -0.0529
     15 C10        -0.7377    5.0317   -5.1837 C.ar      1 <0>         0.0085
     16 C11        -0.3162    4.0123   -4.3498 C.ar      1 <0>        -0.1180
     17 C12         0.1915    4.3087   -3.0973 C.ar      1 <0>         0.0648
     18 Cl1         0.7279    3.0296   -2.0533 Cl        1 <0>        -0.0138
     19 Cl2        -1.3688    4.6611   -6.7579 Cl        1 <0>        -0.0441
     20 Cl3        -1.1852    7.6289   -5.8086 Cl        1 <0>        -0.0479
     21 H1         -4.0778    6.7372   -1.7055 H         1 <0>         0.1041
     22 H2         -1.7859    5.8749   -1.9435 H         1 <0>         0.1059
     23 H3         -1.3487    5.8656    2.3104 H         1 <0>         0.1185
     24 H4         -5.0092    7.1660    0.5305 H         1 <0>         0.1070
     25 H5         -4.7724    7.1815    2.8974 H         1 <0>         0.4160
     26 H6         -0.0908    7.6700   -3.1793 H         1 <0>         0.1632
     27 H7         -0.3788    2.9853   -4.6780 H         1 <0>         0.1534
@<TRIPOS>BOND
     1    1    6 ar
     2    1    2 ar
     3    1   21 1
     4    2    3 ar
     5    2   22 1
     6    3    4 ar
     7    3    8 1
     8    4    5 ar
     9    4   23 1
    10    5    6 ar
    11    5    7 1
    12    6   24 1
    13    7   25 1
    14    8    9 1
    15    9   10 2
    16    9   11 2
    17    9   12 1
    18   12   17 ar
    19   12   13 ar
    20   13   14 ar
    21   13   26 1
    22   14   15 ar
    23   14   20 1
    24   15   16 ar
    25   15   19 1
    26   16   17 ar
    27   16   27 1
    28   17   18 1
@<TRIPOS>MOLECULE
ZINC35455416
   54    56     0     0     0
SMALL
USER_CHARGES

@<TRIPOS>ATOM
      1 C1          0.5926   -2.4447   -0.7537 C.3       1 <0>        -0.1396
      2 C2         -0.0076   -3.8207   -0.4582 C.3       1 <0>        -0.0517
      3 C3          0.6525   -4.4073    0.7912 C.3       1 <0>        -0.1409
      4 C4         -1.4901   -3.6825   -0.2252 C.ar      1 <0>        -0.0951
      5 C5         -1.9576   -2.8839    0.7982 C.ar      1 <0>        -0.1239
      6 C6         -3.3217   -2.7485    1.0268 C.ar      1 <0>        -0.0731
      7 C7         -4.2159   -3.4228    0.2255 C.ar      1 <0>        -0.0439
      8 C8         -3.7509   -4.2250   -0.8110 C.ar      1 <0>         0.1122
      9 C9         -2.3865   -4.3525   -1.0416 C.ar      1 <0>         0.0506
     10 O1         -1.9341   -5.1337   -2.0588 O.3       1 <0>        -0.3293
     11 C10        -1.6841   -6.5084   -1.7592 C.3       1 <0>         0.0385
     12 O2         -4.6360   -4.8837   -1.6062 O.3       1 <0>        -0.4710
     13 C11        -5.7095   -3.3385    0.4325 C.3       1 <0>        -0.0787
     14 C12        -6.1653   -4.5948    1.1805 C.3       1 <0>        -0.0739
     15 C13        -7.6673   -4.5202    1.4553 C.3       1 <0>        -0.1254
     16 C14        -7.9579   -3.2961    2.3277 C.3       1 <0>        -0.1041
     17 C15        -7.5320   -2.0347    1.5746 C.3       1 <0>        -0.0511
     18 C16        -6.0453   -2.0949    1.2493 C.3       1 <0>        -0.0486
     19 H1         -5.7732   -1.2102    0.6737 H         1 <0>         0.0685
     20 C17        -5.2111   -2.1107    2.5314 C.3       1 <0>        -0.1233
     21 C18        -3.7529   -1.8497    2.1563 C.3       1 <0>        -0.0722
     22 C19        -7.8117   -0.8066    2.4432 C.3       1 <0>        -0.1395
     23 C20        -8.3316   -1.9258    0.2747 C.3       1 <0>        -0.1644
     24 C21        -6.4002   -3.2645   -0.9048 C.2       1 <0>         0.5299
     25 O3         -7.0986   -4.1899   -1.2823 O.co2     1 <0>        -0.6791
     26 O4         -6.2606   -2.2793   -1.6094 O.co2     1 <0>        -0.7026
     27 H2          1.6649   -2.5447   -0.9223 H         1 <0>         0.0528
     28 H3          0.1224   -2.0268   -1.6438 H         1 <0>         0.0565
     29 H4          0.4183   -1.7825    0.0943 H         1 <0>         0.0548
     30 H5          0.1668   -4.4829   -1.3062 H         1 <0>         0.0800
     31 H6          0.2249   -5.3876    1.0018 H         1 <0>         0.0516
     32 H7          1.7248   -4.5073    0.6227 H         1 <0>         0.0537
     33 H8          0.4782   -3.7451    1.6393 H         1 <0>         0.0558
     34 H9         -1.2558   -2.3579    1.4283 H         1 <0>         0.1180
     35 H10        -0.9276   -6.5781   -0.9776 H         1 <0>         0.0385
     36 H11        -2.6055   -6.9789   -1.4161 H         1 <0>         0.0483
     37 H12        -1.3285   -7.0166   -2.6555 H         1 <0>         0.0865
     38 H13        -4.8525   -4.4166   -2.4248 H         1 <0>         0.3946
     39 H14        -5.9514   -5.4749    0.5740 H         1 <0>         0.0631
     40 H15        -5.6275   -4.6685    2.1257 H         1 <0>         0.0335
     41 H16        -8.2063   -4.4316    0.5120 H         1 <0>         0.0973
     42 H17        -7.9877   -5.4228    1.9757 H         1 <0>         0.0419
     43 H18        -9.0249   -3.2482    2.5451 H         1 <0>         0.0497
     44 H19        -7.3974   -3.3711    3.2596 H         1 <0>         0.0503
     45 H20        -5.5619   -1.3313    3.2078 H         1 <0>         0.0652
     46 H21        -5.2980   -3.0839    3.0145 H         1 <0>         0.0646
     47 H22        -3.1205   -2.0361    3.0243 H         1 <0>         0.0663
     48 H23        -3.6421   -0.8097    1.8494 H         1 <0>         0.0713
     49 H24        -7.2484   -0.8833    3.3731 H         1 <0>         0.0509
     50 H25        -7.5089    0.0935    1.9081 H         1 <0>         0.0503
     51 H26        -8.8773   -0.7550    2.6670 H         1 <0>         0.0469
     52 H27        -9.3629   -1.6577    0.5039 H         1 <0>         0.0289
     53 H28        -7.8893   -1.1585   -0.3607 H         1 <0>         0.0618
     54 H29        -8.3121   -2.8836   -0.2452 H         1 <0>         0.0986
@<TRIPOS>BOND
     1    1    2 1
     2    1   27 1
     3    1   28 1
     4    1   29 1
     5    2    3 1
     6    2    4 1
     7    2   30 1
     8    3   31 1
     9    3   32 1
    10    3   33 1
    11    4    9 ar
    12    4    5 ar
    13    5    6 ar
    14    5   34 1
    15    6   21 1
    16    6    7 ar
    17    7    8 ar
    18    7   13 1
    19    8    9 ar
    20    8   12 1
    21    9   10 1
    22   10   11 1
    23   11   35 1
    24   11   36 1
    25   11   37 1
    26   12   38 1
    27   13   18 1
    28   13   14 1
    29   13   24 1
    30   14   15 1
    31   14   39 1
    32   14   40 1
    33   15   16 1
    34   15   41 1
    35   15   42 1
    36   16   17 1
    37   16   43 1
    38   16   44 1
    39   17   18 1
    40   17   22 1
    41   17   23 1
    42   18   19 1
    43   18   20 1
    44   20   21 1
    45   20   45 1
    46   20   46 1
    47   21   47 1
    48   21   48 1
    49   22   49 1
    50   22   50 1
    51   22   51 1
    52   23   52 1
    53   23   53 1
    54   23   54 1
    55   24   25 2
    56   24   26 1
@<TRIPOS>MOLECULE
ZINC47383617
   36    37     0     0     0
SMALL
USER_CHARGES

@<TRIPOS>ATOM
      1 C1         -0.0184    1.5028    0.0103 C.3       1 <0>        -0.0821
      2 C2          0.0021   -0.0041    0.0020 C.ar      1 <0>        -0.2174
      3 C3          0.0058   -0.6876   -1.1993 C.ar      1 <0>        -0.0560
      4 C4          0.0249   -2.0686   -1.2111 C.ar      1 <0>        -0.2649
      5 C5          0.0406   -2.7743   -0.0140 C.ar      1 <0>         0.2915
      6 C6          0.0369   -2.0894    1.1931 C.ar      1 <0>        -0.1694
      7 C7          0.0230   -0.7033    1.2005 C.ar      1 <0>         0.1350
      8 O1          0.0245   -0.0297    2.3807 O.3       1 <0>        -0.4997
      9 C8          0.0538   -2.8511    2.4933 C.3       1 <0>        -0.0696
     10 N1          0.0595   -4.1708   -0.0257 N.2       1 <0>        -1.0640
     11 S1          0.0633   -4.9868   -1.4667 S.o2      1 <0>         2.5764
     12 O2         -1.1888   -4.7246   -2.0852 O.2       1 <0>        -1.0254
     13 O3          1.3016   -4.6907   -2.0978 O.2       1 <0>        -1.0052
     14 C9          0.0886   -6.7080   -1.0906 C.ar      1 <0>        -0.5733
     15 C10        -0.9851   -7.5071   -1.4371 C.ar      1 <0>        -0.0358
     16 C11        -0.9653   -8.8572   -1.1421 C.ar      1 <0>        -0.1166
     17 C12         0.1285   -9.4088   -0.5010 C.ar      1 <0>        -0.0873
     18 C13         1.2023   -8.6101   -0.1555 C.ar      1 <0>        -0.1015
     19 C14         1.1843   -7.2603   -0.4544 C.ar      1 <0>        -0.0832
     20 C15         2.3573   -6.3905   -0.0824 C.3       1 <0>         0.4722
     21 F1          3.3349   -7.1695    0.5458 F         1 <0>        -0.1902
     22 F2          2.8936   -5.8117   -1.2377 F         1 <0>        -0.1411
     23 F3          1.9324   -5.3827    0.7899 F         1 <0>        -0.1321
     24 H1          1.0042    1.8801    0.0026 H         1 <0>         0.0501
     25 H2         -0.5455    1.8639   -0.8728 H         1 <0>         0.0483
     26 H3         -0.5286    1.8543    0.9071 H         1 <0>         0.0514
     27 H4         -0.0067   -0.1408   -2.1306 H         1 <0>         0.1049
     28 H5          0.0274   -2.6003   -2.1512 H         1 <0>         0.0981
     29 H6         -0.8583    0.1530    2.7305 H         1 <0>         0.3736
     30 H7          1.0854   -3.0205    2.8019 H         1 <0>         0.0475
     31 H8         -0.4644   -2.2741    3.2593 H         1 <0>         0.0365
     32 H9         -0.4474   -3.8098    2.3594 H         1 <0>         0.0701
     33 H10        -1.8395   -7.0763   -1.9378 H         1 <0>         0.1481
     34 H11        -1.8044   -9.4813   -1.4121 H         1 <0>         0.1352
     35 H12         0.1437  -10.4637   -0.2699 H         1 <0>         0.1353
     36 H13         2.0565   -9.0409    0.3456 H         1 <0>         0.1405
@<TRIPOS>BOND
     1    1    2 1
     2    1   24 1
     3    1   25 1
     4    1   26 1
     5    2    7 ar
     6    2    3 ar
     7    3    4 ar
     8    3   27 1
     9    4    5 ar
    10    4   28 1
    11    5    6 ar
    12    5   10 1
    13    6    7 ar
    14    6    9 1
    15    7    8 1
    16    8   29 1
    17    9   30 1
    18    9   31 1
    19    9   32 1
    20   10   11 1
    21   11   12 2
    22   11   13 2
    23   11   14 1
    24   14   19 ar
    25   14   15 ar
    26   15   16 ar
    27   15   33 1
    28   16   17 ar
    29   16   34 1
    30   17   18 ar
    31   17   35 1
    32   18   19 ar
    33   18   36 1
    34   19   20 1
    35   20   21 1
    36   20   22 1
    37   20   23 1
@<TRIPOS>MOLECULE
ZINC63579825
   38    42     0     0     0
SMALL
USER_CHARGES

@<TRIPOS>ATOM
      1 C1         -0.0163    1.3508    0.0095 C.2       1 <0>        -0.1715
      2 C2          1.1768    2.0358    0.0018 C.2       1 <0>        -0.1047
      3 C3          2.3206    1.2514   -0.0134 C.2       1 <0>        -0.1799
      4 S1          1.6359   -0.3945   -0.0157 S.3       1 <0>         0.1931
      5 C4          0.0021   -0.0041    0.0020 C.2       1 <0>        -0.2373
      6 C5          3.7260    1.6674   -0.0253 C.2       1 <0>         0.2430
      7 C6          4.0428    3.0169   -0.0161 C.2       1 <0>        -0.1949
      8 C7          5.3730    3.4140   -0.0273 C.2       1 <0>         0.0229
      9 C8          6.3728    2.4430   -0.0477 C.2       1 <0>        -0.1369
     10 C9          6.0122    1.0761   -0.0565 C.2       1 <0>         0.5276
     11 O1          6.8789    0.2182   -0.0739 O.2       1 <0>        -0.4938
     12 N1          4.7142    0.7191   -0.0396 N.am      1 <0>        -0.6101
     13 H1          4.4758   -0.2211   -0.0419 H         1 <0>         0.4081
     14 C10         7.7958    2.8385   -0.0605 C.ar      1 <0>         0.4149
     15 N2          8.1151    4.1313   -0.0468 N.ar      1 <0>        -0.6105
     16 C11         9.3682    4.5442   -0.0577 C.ar      1 <0>         0.4815
     17 O2          9.6540    5.8681   -0.0427 O.3       1 <0>        -0.6719
     18 C12        10.4150    3.5821   -0.0850 C.ar      1 <0>        -0.3075
     19 C13        11.8692    3.8249   -0.1049 C.2       1 <0>        -0.0035
     20 C14        12.6553    2.7377   -0.1239 C.2       1 <0>        -0.2285
     21 S2         11.5412    1.3492   -0.1277 S.3       1 <0>         0.0359
     22 C15        10.0079    2.2356   -0.0969 C.ar      1 <0>         0.1651
     23 N3          8.7346    1.8974   -0.0799 N.ar      1 <0>        -0.5265
     24 C16        14.1560    2.6233   -0.1305 C.3       1 <0>         0.0238
     25 S3         14.8525    4.2455   -0.5725 S.3       1 <0>        -0.2691
     26 C17        13.8009    5.3750    0.3931 C.3       1 <0>        -0.0712
     27 C18        12.3702    5.2639   -0.1150 C.3       1 <0>        -0.0649
     28 H2         -0.9545    1.8855    0.0258 H         1 <0>         0.1374
     29 H3          1.2199    3.1149    0.0068 H         1 <0>         0.1508
     30 H4         -0.8411   -0.6789    0.0070 H         1 <0>         0.1870
     31 H5          3.2568    3.7575   -0.0007 H         1 <0>         0.1500
     32 H6          5.6302    4.4630   -0.0207 H         1 <0>         0.1575
     33 H7         14.5064    2.3306    0.8592 H         1 <0>         0.0924
     34 H8         14.4643    1.8789   -0.8647 H         1 <0>         0.1094
     35 H9         13.8373    5.0976    1.4466 H         1 <0>         0.0822
     36 H10        14.1542    6.3987    0.2698 H         1 <0>         0.1063
     37 H11        12.3256    5.6473   -1.1343 H         1 <0>         0.0823
     38 H12        11.7214    5.8691    0.5182 H         1 <0>         0.1115
@<TRIPOS>BOND
     1    1    5 2
     2    1    2 1
     3    1   28 1
     4    2    3 2
     5    2   29 1
     6    3    4 1
     7    3    6 1
     8    4    5 1
     9    5   30 1
    10    6   12 1
    11    6    7 2
    12    7    8 1
    13    7   31 1
    14    8    9 2
    15    8   32 1
    16    9   10 1
    17    9   14 1
    18   10   11 2
    19   10   12 am
    20   12   13 1
    21   14   23 ar
    22   14   15 ar
    23   15   16 ar
    24   16   17 1
    25   16   18 ar
    26   18   22 ar
    27   18   19 1
    28   19   27 1
    29   19   20 2
    30   20   21 1
    31   20   24 1
    32   21   22 1
    33   22   23 ar
    34   24   25 1
    35   24   33 1
    36   24   34 1
    37   25   26 1
    38   26   27 1
    39   26   35 1
    40   26   36 1
    41   27   37 1
    42   27   38 1
@<TRIPOS>MOLECULE
ZINC25585969
   44    47     0     0     0
SMALL
USER_CHARGES
3-ethyl-7-[(2R)-2-methylindoline-1-carbonyl]-2-sulfanyl-quinazolin-4-one
@<TRIPOS>ATOM
      1 C1         -0.3404    1.2846   -1.1500 C.3       1 <0>        -0.1575
      2 C2          0.7419    1.9426   -2.0082 C.3       1 <0>         0.0924
      3 N1          1.9920    1.1898   -1.8795 N.pl3     1 <0>        -0.5356
      4 C3          2.8743    1.5155   -0.9069 C.2       1 <0>         0.5485
      5 O1          2.6505    2.4266   -0.1316 O.3       1 <0>        -0.5381
      6 C4          4.1173    0.7323   -0.8245 C.ar      1 <0>        -0.2259
      7 C5          5.0881    0.9985    0.1406 C.ar      1 <0>        -0.0245
      8 C6          6.2283    0.2487    0.1833 C.ar      1 <0>        -0.1648
      9 C7          6.4344   -0.7888   -0.7350 C.ar      1 <0>        -0.0810
     10 C8          5.4810   -1.0714   -1.7046 C.ar      1 <0>        -0.0778
     11 C9          4.3096   -0.3108   -1.7583 C.ar      1 <0>         0.2056
     12 N2          3.3535   -0.5504   -2.6864 N.2       1 <0>        -0.5622
     13 C10         2.2549    0.1616   -2.7389 C.2       1 <0>         0.5355
     14 S1          1.0646   -0.2207   -3.9805 S.2       1 <0>        -0.7593
     15 C11         7.6774   -1.5901   -0.6713 C.2       1 <0>         0.5760
     16 O2          7.6305   -2.7965   -0.8113 O.2       1 <0>        -0.5066
     17 N3          8.8611   -0.9820   -0.4581 N.am      1 <0>        -0.5468
     18 C12        10.1022   -1.6241   -0.4540 C.ar      1 <0>         0.1516
     19 C13        10.4017   -2.9729   -0.6574 C.ar      1 <0>        -0.1328
     20 C14        11.7084   -3.4091   -0.6129 C.ar      1 <0>        -0.0947
     21 C15        12.7333   -2.5139   -0.3655 C.ar      1 <0>        -0.1456
     22 C16        12.4448   -1.1773   -0.1629 C.ar      1 <0>        -0.0814
     23 C17        11.1363   -0.7353   -0.2070 C.ar      1 <0>        -0.1403
     24 C18        10.5498    0.6465   -0.0243 C.3       1 <0>        -0.0806
     25 C19         9.0354    0.4504   -0.2029 C.3       1 <0>         0.1248
     26 H1          8.4528    0.7437    0.6829 H         1 <0>         0.1025
     27 C20         8.5285    1.2672   -1.3932 C.3       1 <0>        -0.1789
     28 H2         -1.2791    1.8499   -1.2467 H         1 <0>         0.0666
     29 H3         -0.0215    1.2806   -0.0972 H         1 <0>         0.0474
     30 H4         -0.4987    0.2502   -1.4891 H         1 <0>         0.0695
     31 H5          0.4230    1.9466   -3.0610 H         1 <0>         0.1166
     32 H6          0.9002    2.9770   -1.6692 H         1 <0>         0.0794
     33 H7          4.9384    1.7965    0.8527 H         1 <0>         0.1332
     34 H8          6.9780    0.4572    0.9321 H         1 <0>         0.1288
     35 H9          5.6435   -1.8718   -2.4112 H         1 <0>         0.1400
     36 H10         9.6061   -3.6772   -0.8506 H         1 <0>         0.1393
     37 H11        11.9328   -4.4536   -0.7710 H         1 <0>         0.1262
     38 H12        13.7563   -2.8582   -0.3312 H         1 <0>         0.1240
     39 H13        13.2439   -0.4769    0.0300 H         1 <0>         0.1231
     40 H14        10.7989    1.0207    0.9797 H         1 <0>         0.0914
     41 H15        10.9673    1.3252   -0.7826 H         1 <0>         0.0936
     42 H16         8.6657    2.3390   -1.1874 H         1 <0>         0.0768
     43 H17         7.4604    1.0582   -1.5530 H         1 <0>         0.0799
     44 H18         9.0950    0.9915   -2.2949 H         1 <0>         0.0615
@<TRIPOS>BOND
     1    1    2 1
     2    1   28 1
     3    1   29 1
     4    1   30 1
     5    2    3 1
     6    2   31 1
     7    2   32 1
     8    3   13 1
     9    3    4 1
    10    4    5 1
    11    4    6 2
    12    6   11 ar
    13    6    7 ar
    14    7    8 ar
    15    7   33 1
    16    8    9 ar
    17    8   34 1
    18    9   10 ar
    19    9   15 1
    20   10   11 ar
    21   10   35 1
    22   11   12 2
    23   12   13 1
    24   13   14 2
    25   15   16 2
    26   15   17 am
    27   17   25 1
    28   17   18 1
    29   18   23 ar
    30   18   19 ar
    31   19   20 ar
    32   19   36 1
    33   20   21 ar
    34   20   37 1
    35   21   22 ar
    36   21   38 1
    37   22   23 ar
    38   22   39 1
    39   23   24 1
    40   24   25 1
    41   24   40 1
    42   24   41 1
    43   25   26 1
    44   25   27 1
    45   27   42 1
    46   27   43 1
    47   27   44 1
@<TRIPOS>MOLECULE
ZINC35698459
   24    26     0     0     0
SMALL
USER_CHARGES

@<TRIPOS>ATOM
      1 C1         -0.0167    1.3768    0.0096 C.ar      1 <0>        -0.0982
      2 C2          1.1705    2.0864    0.0021 C.ar      1 <0>        -0.1127
      3 C3          2.3798    1.4165   -0.0131 C.ar      1 <0>        -0.0891
      4 C4          2.4056    0.0346   -0.0212 C.ar      1 <0>        -0.0588
      5 C5          1.2146   -0.6807   -0.0137 C.ar      1 <0>         0.1947
      6 C6          0.0021   -0.0041    0.0020 C.ar      1 <0>        -0.0843
      7 N1          1.2369   -2.0811   -0.0224 N.pl3     1 <0>        -0.4590
      8 C7          1.2539   -2.7798    1.1559 C.2       1 <0>         0.5320
      9 O1          1.2496   -2.1359    2.3423 O.3       1 <0>        -0.6122
     10 C8          1.2749   -4.1481    1.1000 C.2       1 <0>        -0.3408
     11 C9          1.2793   -4.8405   -0.1381 C.2       1 <0>         0.2165
     12 C10         1.3016   -6.2391   -0.0410 C.2       1 <0>        -0.1619
     13 C11         1.3168   -6.8370    1.1690 C.2       1 <0>        -0.1265
     14 S1          1.3015   -5.4550    2.2986 S.3       1 <0>         0.0988
     15 N2          1.2619   -4.0691   -1.2542 N.2       1 <0>        -0.5362
     16 C12         1.2361   -2.7529   -1.1873 C.2       1 <0>         0.5152
     17 S2          1.2075   -1.8595   -2.6475 S.2       1 <0>        -0.6939
     18 Br1         4.0599   -0.8812   -0.0432 Br        1 <0>        -0.0447
     19 H1         -0.9595    1.9033    0.0260 H         1 <0>         0.1318
     20 H2          1.1528    3.1662    0.0077 H         1 <0>         0.1317
     21 H3          3.3051    1.9734   -0.0189 H         1 <0>         0.1342
     22 H4         -0.9255   -0.5572    0.0079 H         1 <0>         0.1273
     23 H5          1.3063   -6.8404   -0.9381 H         1 <0>         0.1420
     24 H6          1.3340   -7.8924    1.3975 H         1 <0>         0.1942
@<TRIPOS>BOND
     1    1    6 ar
     2    1    2 ar
     3    1   19 1
     4    2    3 ar
     5    2   20 1
     6    3    4 ar
     7    3   21 1
     8    4    5 ar
     9    4   18 1
    10    5    6 ar
    11    5    7 1
    12    6   22 1
    13    7   16 1
    14    7    8 1
    15    8    9 1
    16    8   10 2
    17   10   14 1
    18   10   11 1
    19   11   12 1
    20   11   15 2
    21   12   13 2
    22   12   23 1
    23   13   14 1
    24   13   24 1
    25   15   16 1
    26   16   17 2
@<TRIPOS>MOLECULE
ZINC38609962
   37    39     0     0     0
SMALL
USER_CHARGES

@<TRIPOS>ATOM
      1 C1          0.7885   -2.8234   -1.5867 C.3       1 <0>        -0.1208
      2 C2         -0.1740   -2.6283   -0.4134 C.3       1 <0>         0.0718
      3 H1         -0.8353   -3.4899   -0.3217 H         1 <0>         0.1139
      4 C3         -0.9843   -1.3648   -0.6057 C.2       1 <0>        -0.1472
      5 C4         -0.6787   -0.5702    0.4551 C.2       1 <0>        -0.0676
      6 C5          0.2824   -1.2649    1.3084 C.2       1 <0>         0.1654
      7 N1          0.5771   -2.4299    0.8319 N.2       1 <0>        -0.4802
      8 C6          0.8558   -0.6971    2.5811 C.3       1 <0>        -0.0961
      9 C7         -1.8687   -1.0729   -1.6611 C.2       1 <0>         0.0979
     10 C8         -1.6834    0.0694   -2.4253 C.2       1 <0>        -0.2503
     11 C9         -0.4965    0.9248   -2.2563 C.2       1 <0>         0.4927
     12 O1          0.4521    0.6180   -1.3457 O.3       1 <0>        -0.5727
     13 N2         -0.3813    1.9983   -3.0161 N.2       1 <0>        -0.5894
     14 C10        -1.2996    2.3261   -3.9224 C.2       1 <0>         0.5391
     15 S1         -1.0478    3.7408   -4.8530 S.2       1 <0>        -0.6425
     16 N3         -2.4106    1.6098   -4.1473 N.am      1 <0>        -0.5126
     17 C11        -2.6651    0.4809   -3.4511 C.2       1 <0>         0.5605
     18 O2         -3.6704   -0.1725   -3.6577 O.2       1 <0>        -0.4966
     19 C12        -3.3191    2.0361   -5.1245 C.ar      1 <0>         0.1845
     20 C13        -4.4080    2.8198   -4.7670 C.ar      1 <0>        -0.0783
     21 C14        -5.3032    3.2392   -5.7332 C.ar      1 <0>        -0.0134
     22 C15        -5.1148    2.8786   -7.0559 C.ar      1 <0>        -0.0976
     23 C16        -4.0305    2.0972   -7.4147 C.ar      1 <0>        -0.0135
     24 C17        -3.1291    1.6804   -6.4531 C.ar      1 <0>        -0.0720
     25 Cl1        -3.7982    1.6461   -9.0748 Cl        1 <0>        -0.0573
     26 Cl2        -6.6653    4.2186   -5.2869 Cl        1 <0>        -0.0579
     27 H2          1.4370   -3.6763   -1.3866 H         1 <0>         0.0646
     28 H3          0.2185   -3.0061   -2.4976 H         1 <0>         0.0607
     29 H4          1.3956   -1.9268   -1.7116 H         1 <0>         0.0711
     30 H5         -1.0815    0.4151    0.6373 H         1 <0>         0.1382
     31 H6          0.2202   -0.9752    3.4217 H         1 <0>         0.0798
     32 H7          1.8587   -1.0947    2.7368 H         1 <0>         0.0772
     33 H8          0.9034    0.3892    2.5052 H         1 <0>         0.0808
     34 H9         -2.6917   -1.7385   -1.8757 H         1 <0>         0.1452
     35 H10        -4.5557    3.1012   -3.7348 H         1 <0>         0.1381
     36 H11        -5.8153    3.2073   -7.8093 H         1 <0>         0.1459
     37 H12        -2.2802    1.0749   -6.7344 H         1 <0>         0.1389
@<TRIPOS>BOND
     1    1    2 1
     2    1   27 1
     3    1   28 1
     4    1   29 1
     5    2    3 1
     6    2    7 1
     7    2    4 1
     8    4    5 2
     9    4    9 1
    10    5    6 1
    11    5   30 1
    12    6    7 2
    13    6    8 1
    14    8   31 1
    15    8   32 1
    16    8   33 1
    17    9   10 2
    18    9   34 1
    19   10   17 1
    20   10   11 1
    21   11   12 1
    22   11   13 2
    23   13   14 1
    24   14   15 2
    25   14   16 1
    26   16   17 am
    27   16   19 1
    28   17   18 2
    29   19   24 ar
    30   19   20 ar
    31   20   21 ar
    32   20   35 1
    33   21   22 ar
    34   21   26 1
    35   22   23 ar
    36   22   36 1
    37   23   24 ar
    38   23   25 1
    39   24   37 1
@<TRIPOS>MOLECULE
ZINC48623036
   26    28     0     0     0
SMALL
USER_CHARGES

@<TRIPOS>ATOM
      1 C1         -0.0178    1.4608    0.0101 C.3       1 <0>         0.1048
      2 N1          0.0021   -0.0041    0.0020 N.pl3     1 <0>        -0.3828
      3 C2          0.0077   -0.7864   -1.0932 C.2       1 <0>         0.1089
      4 C3          0.0273   -2.0863   -0.6725 C.2       1 <0>        -0.1802
      5 C4          0.0335   -2.0750    0.7374 C.2       1 <0>         0.0984
      6 N2          0.0245   -0.8301    1.1321 N.2       1 <0>        -0.3154
      7 C5          0.0389   -3.2878   -1.5392 C.ar      1 <0>         0.4597
      8 N3          0.0354   -3.1219   -2.8616 N.ar      1 <0>        -0.6329
      9 C6          0.0453   -4.1551   -3.6861 C.ar      1 <0>         0.4805
     10 O1          0.0420   -3.9723   -5.0266 O.3       1 <0>        -0.6571
     11 C7          0.0600   -5.4576   -3.1319 C.ar      1 <0>        -0.2377
     12 C8          0.0718   -6.6047   -3.9339 C.ar      1 <0>         0.0305
     13 C9          0.0861   -7.8363   -3.3464 C.ar      1 <0>        -0.1632
     14 C10         0.0888   -7.9674   -1.9596 C.ar      1 <0>        -0.0219
     15 C11         0.0777   -6.8701   -1.1502 C.ar      1 <0>        -0.1098
     16 C12         0.0633   -5.5883   -1.7211 C.ar      1 <0>         0.2363
     17 N4          0.0578   -4.4789   -0.9701 N.ar      1 <0>        -0.5960
     18 Br1         0.0810   -7.0743    0.7297 Br        1 <0>        -0.0460
     19 Br2         0.1020   -9.3861   -4.4297 Br        1 <0>        -0.0699
     20 H1          1.0048    1.8381    0.0023 H         1 <0>         0.0720
     21 H2         -0.5450    1.8219   -0.8730 H         1 <0>         0.0864
     22 H3         -0.5280    1.8123    0.9069 H         1 <0>         0.0864
     23 H4         -0.0020   -0.4480   -2.1187 H         1 <0>         0.1857
     24 H5          0.0482   -2.9438    1.3787 H         1 <0>         0.1920
     25 H6          0.0691   -6.5157   -5.0102 H         1 <0>         0.1384
     26 H7          0.0996   -8.9533   -1.5188 H         1 <0>         0.1329
@<TRIPOS>BOND
     1    1    2 1
     2    1   20 1
     3    1   21 1
     4    1   22 1
     5    2    6 1
     6    2    3 1
     7    3    4 2
     8    3   23 1
     9    4    5 1
    10    4    7 1
    11    5    6 2
    12    5   24 1
    13    7   17 ar
    14    7    8 ar
    15    8    9 ar
    16    9   10 1
    17    9   11 ar
    18   11   16 ar
    19   11   12 ar
    20   12   13 ar
    21   12   25 1
    22   13   14 ar
    23   13   19 1
    24   14   15 ar
    25   14   26 1
    26   15   16 ar
    27   15   18 1
    28   16   17 ar
@<TRIPOS>MOLECULE
ZINC60442087
   27    28     0     0     0
SMALL
USER_CHARGES

@<TRIPOS>ATOM
      1 C1         -0.0168    1.3858    0.0097 C.ar      1 <0>        -0.2277
      2 C2          1.1676    2.0984    0.0022 C.ar      1 <0>        -0.0482
      3 C3          2.3784    1.4341   -0.0129 C.ar      1 <0>        -0.0942
      4 C4          2.4079    0.0366   -0.0206 C.ar      1 <0>         0.0143
      5 C5          1.2114   -0.6814   -0.0131 C.ar      1 <0>        -0.1163
      6 C6          0.0021   -0.0041    0.0020 C.ar      1 <0>         0.2843
      7 N1         -1.1989   -0.7190    0.0096 N.2       1 <0>        -1.0796
      8 S1         -2.6439    0.0898    0.0277 S.o2      1 <0>         2.6067
      9 O1         -2.7173    0.7621    1.2774 O.2       1 <0>        -1.0052
     10 O2         -2.7410    0.7755   -1.2131 O.2       1 <0>        -1.0051
     11 C7         -3.9206   -1.1245    0.0333 C.ar      1 <0>        -0.7197
     12 C8         -4.4296   -1.5993   -1.1633 C.ar      1 <0>         0.2580
     13 C9         -5.4326   -2.5533   -1.1589 C.ar      1 <0>        -0.2307
     14 C10        -5.9264   -3.0330    0.0421 C.ar      1 <0>         0.1999
     15 C11        -5.4168   -2.5589    1.2387 C.ar      1 <0>        -0.2308
     16 C12        -4.4107   -1.6080    1.2343 C.ar      1 <0>         0.2579
     17 F1         -3.9101   -1.1488    2.4021 F         1 <0>        -0.0924
     18 F2         -6.9059   -3.9634    0.0464 F         1 <0>        -0.1195
     19 F3         -3.9477   -1.1311   -2.3355 F         1 <0>        -0.0925
     20 C13         3.6614   -0.6557   -0.0368 C.1       1 <0>         0.2741
     21 N2          4.6558   -1.2048   -0.0495 N.1       1 <0>        -0.4363
     22 Cl1         3.8627    2.3343   -0.0228 Cl        1 <0>        -0.0937
     23 H1         -0.9604    1.9109    0.0260 H         1 <0>         0.1136
     24 H2          1.1461    3.1781    0.0078 H         1 <0>         0.1273
     25 H3          1.2275   -1.7613   -0.0193 H         1 <0>         0.1344
     26 H4         -5.8302   -2.9232   -2.0925 H         1 <0>         0.1607
     27 H5         -5.8022   -2.9329    2.1758 H         1 <0>         0.1607
@<TRIPOS>BOND
     1    1    6 ar
     2    1    2 ar
     3    1   23 1
     4    2    3 ar
     5    2   24 1
     6    3    4 ar
     7    3   22 1
     8    4    5 ar
     9    4   20 1
    10    5    6 ar
    11    5   25 1
    12    6    7 1
    13    7    8 1
    14    8    9 2
    15    8   10 2
    16    8   11 1
    17   11   16 ar
    18   11   12 ar
    19   12   13 ar
    20   12   19 1
    21   13   14 ar
    22   13   26 1
    23   14   15 ar
    24   14   18 1
    25   15   16 ar
    26   15   27 1
    27   16   17 1
    28   20   21 3
@<TRIPOS>MOLECULE
ZINC20374871
   41    43     0     0     0
SMALL
USER_CHARGES
(2S)-2-[[(7S)-2,7-dimethyl-5,6,7,8-tetrahydrobenzothiopheno[3,2-e]pyrimidin-4-yl]sulfanyl]butanoic acid
@<TRIPOS>ATOM
      1 C1         -0.7527    1.5927   -1.2315 C.3       1 <0>        -0.1544
      2 C2         -0.0127    1.0858    0.0080 C.3       1 <0>        -0.0949
      3 C3         -0.7288    1.5792    1.2668 C.3       1 <0>        -0.1384
      4 H1         -1.7188    1.1007    1.2371 H         1 <0>         0.0991
      5 C4         -0.0738    0.9805    2.4848 C.2       1 <0>         0.4721
      6 O1         -0.7480    0.4393    3.3288 O.co2     1 <0>        -0.6081
      7 O2          1.2587    1.0483    2.6319 O.co2     1 <0>        -0.7608
      8 S1         -0.6249    3.3842    1.3518 S.3       1 <0>         0.0209
      9 C5         -1.6298    3.6823    2.7681 C.ar      1 <0>         0.2111
     10 C6         -1.8415    5.0098    3.2360 C.ar      1 <0>        -0.1964
     11 C7         -1.3232    6.2662    2.6928 C.2       1 <0>        -0.0658
     12 C8         -1.6771    7.4005    3.3305 C.2       1 <0>        -0.1567
     13 S2         -2.7176    6.8747    4.6662 S.3       1 <0>         0.0815
     14 C9         -2.6659    5.1262    4.3726 C.ar      1 <0>         0.1406
     15 N1         -3.1892    4.0654    4.9567 N.ar      1 <0>        -0.5050
     16 C10        -2.9530    2.8584    4.4800 C.ar      1 <0>         0.3611
     17 N2         -2.1938    2.6741    3.4149 N.ar      1 <0>        -0.4832
     18 C11        -3.5634    1.6631    5.1654 C.3       1 <0>        -0.0822
     19 C12        -1.2823    8.8019    2.9761 C.3       1 <0>        -0.0294
     20 C13        -0.7098    8.7988    1.5515 C.3       1 <0>        -0.0864
     21 H2         -1.5187    8.6586    0.8193 H         1 <0>         0.0774
     22 C14         0.3047    7.6577    1.4325 C.3       1 <0>        -0.1127
     23 C15        -0.4215    6.3124    1.4622 C.3       1 <0>        -0.0744
     24 C16        -0.0155   10.1338    1.2745 C.3       1 <0>        -0.1473
     25 H3         -0.2378    1.2380   -2.1365 H         1 <0>         0.0529
     26 H4         -0.7676    2.6926   -1.2254 H         1 <0>         0.0567
     27 H5         -1.7847    1.2120   -1.2237 H         1 <0>         0.0517
     28 H6          0.0022   -0.0141    0.0019 H         1 <0>         0.0711
     29 H7          1.0193    1.4665    0.0002 H         1 <0>         0.0743
     30 H8         -3.2636    0.7454    4.6382 H         1 <0>         0.1020
     31 H9         -4.6597    1.7526    5.1513 H         1 <0>         0.0815
     32 H10        -3.2124    1.6189    6.2070 H         1 <0>         0.0853
     33 H11        -2.1659    9.4552    3.0251 H         1 <0>         0.0815
     34 H12        -0.5221    9.1594    3.6863 H         1 <0>         0.0849
     35 H13         0.8542    7.7531    0.4844 H         1 <0>         0.0728
     36 H14         1.0125    7.7071    2.2731 H         1 <0>         0.0683
     37 H15         0.3120    5.4943    1.5142 H         1 <0>         0.0937
     38 H16        -1.0332    6.1993    0.5550 H         1 <0>         0.0845
     39 H17         0.3938   10.1293    0.2535 H         1 <0>         0.0585
     40 H18         0.8016   10.2789    1.9965 H         1 <0>         0.0568
     41 H19        -0.7428   10.9530    1.3744 H         1 <0>         0.0557
@<TRIPOS>BOND
     1    1    2 1
     2    1   25 1
     3    1   26 1
     4    1   27 1
     5    2    3 1
     6    2   28 1
     7    2   29 1
     8    3    4 1
     9    3    5 1
    10    3    8 1
    11    5    6 2
    12    5    7 1
    13    8    9 1
    14    9   17 ar
    15    9   10 ar
    16   10   14 ar
    17   10   11 1
    18   11   23 1
    19   11   12 2
    20   12   13 1
    21   12   19 1
    22   13   14 1
    23   14   15 ar
    24   15   16 ar
    25   16   17 ar
    26   16   18 1
    27   18   30 1
    28   18   31 1
    29   18   32 1
    30   19   20 1
    31   19   33 1
    32   19   34 1
    33   20   21 1
    34   20   22 1
    35   20   24 1
    36   22   23 1
    37   22   35 1
    38   22   36 1
    39   23   37 1
    40   23   38 1
    41   24   39 1
    42   24   40 1
    43   24   41 1
@<TRIPOS>MOLECULE
ZINC32926333
   26    27     0     0     0
SMALL
USER_CHARGES
2-bromo-N-(2,5-difluorophenyl)-4-fluoro-benzenesulfonamide
@<TRIPOS>ATOM
      1 C1         -1.3949   -0.1794    4.9368 C.ar      1 <0>        -0.2188
      2 C2         -2.7592   -0.3822    4.8323 C.ar      1 <0>        -0.0939
      3 C3         -3.4361    0.0306    3.7000 C.ar      1 <0>         0.0340
      4 C4         -2.7420    0.6400    2.6597 C.ar      1 <0>         0.2548
      5 C5         -1.3733    0.8418    2.7670 C.ar      1 <0>        -0.2702
      6 C6         -0.7021    0.4315    3.9056 C.ar      1 <0>         0.1307
      7 F1          0.6304    0.6275    4.0110 F         1 <0>        -0.1513
      8 N1         -3.4232    1.0534    1.5105 N.2       1 <0>        -1.0167
      9 S1         -2.6869    0.9534    0.0306 S.o2      1 <0>         2.5793
     10 O1         -3.6371    1.4007   -0.9267 O.2       1 <0>        -0.9668
     11 O2         -2.0842   -0.3317   -0.0372 O.2       1 <0>        -1.0227
     12 C7         -1.3727    2.1271    0.0221 C.ar      1 <0>        -0.6516
     13 C8         -0.0645    1.6984   -0.1044 C.ar      1 <0>        -0.0046
     14 C9          0.9666    2.6182   -0.1170 C.ar      1 <0>        -0.1635
     15 C10         0.6900    3.9699    0.0026 C.ar      1 <0>         0.1351
     16 C11        -0.6195    4.3985    0.1345 C.ar      1 <0>        -0.1527
     17 C12        -1.6502    3.4763    0.1469 C.ar      1 <0>         0.0239
     18 Br1        -3.4396    4.0609    0.3265 Br        1 <0>        -0.0009
     19 F2          1.6978    4.8696   -0.0092 F         1 <0>        -0.1339
     20 F3         -4.7696   -0.1625    3.6014 F         1 <0>        -0.1389
     21 H1         -0.8691   -0.4985    5.8246 H         1 <0>         0.1258
     22 H2         -3.2969   -0.8590    5.6385 H         1 <0>         0.1299
     23 H3         -0.8325    1.3190    1.9631 H         1 <0>         0.1272
     24 H4          0.1514    0.6443   -0.1980 H         1 <0>         0.1552
     25 H5          1.9881    2.2830   -0.2203 H         1 <0>         0.1442
     26 H6         -0.8363    5.4524    0.2275 H         1 <0>         0.1463
@<TRIPOS>BOND
     1    1    6 ar
     2    1    2 ar
     3    1   21 1
     4    2    3 ar
     5    2   22 1
     6    3    4 ar
     7    3   20 1
     8    4    5 ar
     9    4    8 1
    10    5    6 ar
    11    5   23 1
    12    6    7 1
    13    8    9 1
    14    9   10 2
    15    9   11 2
    16    9   12 1
    17   12   17 ar
    18   12   13 ar
    19   13   14 ar
    20   13   24 1
    21   14   15 ar
    22   14   25 1
    23   15   16 ar
    24   15   19 1
    25   16   17 ar
    26   16   26 1
    27   17   18 1
@<TRIPOS>MOLECULE
ZINC06779983
   63    66     0     0     0
SMALL
USER_CHARGES

@<TRIPOS>ATOM
      1 C1          0.4749   -0.5629   -1.6323 C.3       1 <0>        -0.1462
      2 C2         -0.0129   -0.0965   -0.2592 C.3       1 <0>        -0.0975
      3 H1          0.1658    0.9737   -0.1545 H         1 <0>         0.0659
      4 C3         -1.5108   -0.3788   -0.1271 C.3       1 <0>        -0.1002
      5 C4         -2.2432    0.1696   -1.3533 C.3       1 <0>        -0.1888
      6 C5         -3.7186   -0.1085   -1.2232 C.2       1 <0>         0.4884
      7 O1         -4.1448   -0.6913   -0.2408 O.co2     1 <0>        -0.6995
      8 O2         -4.4861    0.2493   -2.1004 O.co2     1 <0>        -0.7088
      9 C6          0.7447   -0.8480    0.8321 C.3       1 <0>        -0.0605
     10 H2          1.8159   -0.6810    0.7384 H         1 <0>         0.0705
     11 C7          0.4297   -2.3664    0.7665 C.3       1 <0>        -0.1221
     12 C8         -0.4015   -2.6974    2.0425 C.3       1 <0>        -0.1115
     13 C9         -0.9775   -1.3229    2.4058 C.3       1 <0>        -0.1158
     14 H3         -1.7203   -1.0576    1.6328 H         1 <0>         0.1283
     15 C10         0.2696   -0.4233    2.2271 C.3       1 <0>        -0.1039
     16 C11        -0.1627    0.9967    2.3911 C.2       1 <0>         0.3931
     17 O3          0.5844    1.9223    2.1158 O.2       1 <0>        -0.4698
     18 C12        -1.5626    1.2489    2.9191 C.3       1 <0>        -0.1716
     19 C13        -1.9247    0.2970    4.0609 C.3       1 <0>        -0.0468
     20 H4         -3.0439    0.3317    4.1086 H         1 <0>         0.0673
     21 C14        -1.6203   -1.1397    3.7417 C.3       1 <0>        -0.0695
     22 H5         -2.6599   -1.5261    3.5298 H         1 <0>         0.0532
     23 C15        -1.1931   -2.0735    4.8304 C.3       1 <0>        -0.1022
     24 C16        -0.5500   -1.3850    6.0261 C.3       1 <0>        -0.1149
     25 C17        -1.4541   -0.2383    6.4750 C.3       1 <0>        -0.0658
     26 H6         -2.4713   -0.6256    6.6145 H         1 <0>         0.0756
     27 C18        -1.4881    0.8437    5.4037 C.3       1 <0>        -0.0428
     28 C19        -2.4816    1.9363    5.8297 C.3       1 <0>        -0.1098
     29 C20        -2.0478    2.5856    7.1409 C.3       1 <0>        -0.1679
     30 C21        -1.7849    1.5218    8.1807 C.2       1 <0>         0.3653
     31 O4         -2.2350    1.6290    9.2996 O.2       1 <0>        -0.4666
     32 C22        -0.9501    0.3205    7.8048 C.3       1 <0>        -0.1639
     33 C23        -0.1072    1.4861    5.2941 C.3       1 <0>        -0.1660
     34 C24         1.3697   -0.7664    3.2380 C.3       1 <0>        -0.1406
     35 H7          0.3329   -1.6399   -1.7217 H         1 <0>         0.0550
     36 H8         -0.0939   -0.0556   -2.4116 H         1 <0>         0.0620
     37 H9          1.5330   -0.3256   -1.7419 H         1 <0>         0.0448
     38 H10        -1.6731   -1.4544   -0.0579 H         1 <0>         0.0706
     39 H11        -1.8938    0.1050    0.7714 H         1 <0>         0.0688
     40 H12        -2.0810    1.2452   -1.4225 H         1 <0>         0.0517
     41 H13        -1.8602   -0.3142   -2.2518 H         1 <0>         0.0605
     42 H14        -0.1532   -2.5883   -0.1253 H         1 <0>         0.0763
     43 H15         1.3548   -2.9399    0.7691 H         1 <0>         0.0589
     44 H16        -1.2047   -3.3944    1.7944 H         1 <0>         0.0656
     45 H17         0.2275   -3.1040    2.8233 H         1 <0>         0.0683
     46 H18        -1.6505    2.2898    3.2524 H         1 <0>         0.0886
     47 H19        -2.2844    1.1168    2.0980 H         1 <0>         0.1106
     48 H20        -2.0739   -2.6257    5.1843 H         1 <0>         0.0572
     49 H21        -0.4900   -2.8117    4.4375 H         1 <0>         0.0704
     50 H22        -0.4611   -2.1104    6.8444 H         1 <0>         0.0603
     51 H23         0.4430   -1.0302    5.7801 H         1 <0>         0.0719
     52 H24        -2.5267    2.6969    5.0464 H         1 <0>         0.0782
     53 H25        -3.4705    1.4916    5.9515 H         1 <0>         0.0700
     54 H26        -1.1612    3.2004    6.9973 H         1 <0>         0.1011
     55 H27        -2.8544    3.2386    7.5018 H         1 <0>         0.0850
     56 H28        -1.0638   -0.4456    8.5826 H         1 <0>         0.0856
     57 H29         0.1008    0.5902    7.7470 H         1 <0>         0.1019
     58 H30        -0.1529    2.3303    4.6062 H         1 <0>         0.0629
     59 H31         0.2102    1.8349    6.2768 H         1 <0>         0.0558
     60 H32         0.6066    0.7517    4.9212 H         1 <0>         0.0682
     61 H33         2.2193   -0.0995    3.0908 H         1 <0>         0.0548
     62 H34         0.9837   -0.6451    4.2502 H         1 <0>         0.0736
     63 H35         1.6884   -1.7985    3.0920 H         1 <0>         0.0665
@<TRIPOS>BOND
     1    1    2 1
     2    1   35 1
     3    1   36 1
     4    1   37 1
     5    2    3 1
     6    2    4 1
     7    2    9 1
     8    4    5 1
     9    4   38 1
    10    4   39 1
    11    5    6 1
    12    5   40 1
    13    5   41 1
    14    6    7 2
    15    6    8 1
    16    9   10 1
    17    9   15 1
    18    9   11 1
    19   11   12 1
    20   11   42 1
    21   11   43 1
    22   12   13 1
    23   12   44 1
    24   12   45 1
    25   13   14 1
    26   13   21 1
    27   13   15 1
    28   15   16 1
    29   15   34 1
    30   16   17 2
    31   16   18 1
    32   18   19 1
    33   18   46 1
    34   18   47 1
    35   19   20 1
    36   19   27 1
    37   19   21 1
    38   21   22 1
    39   21   23 1
    40   23   24 1
    41   23   48 1
    42   23   49 1
    43   24   25 1
    44   24   50 1
    45   24   51 1
    46   25   26 1
    47   25   32 1
    48   25   27 1
    49   27   28 1
    50   27   33 1
    51   28   29 1
    52   28   52 1
    53   28   53 1
    54   29   30 1
    55   29   54 1
    56   29   55 1
    57   30   31 2
    58   30   32 1
    59   32   56 1
    60   32   57 1
    61   33   58 1
    62   33   59 1
    63   33   60 1
    64   34   61 1
    65   34   62 1
    66   34   63 1
@<TRIPOS>MOLECULE
ZINC44223424
   29    30     0     0     0
SMALL
USER_CHARGES

@<TRIPOS>ATOM
      1 C1         -2.2614   -0.0236    0.8473 C.3       1 <0>        -0.1086
      2 C2         -0.9777   -0.6347    0.3476 C.2       1 <0>        -0.0842
      3 C3          0.1315   -0.6266    1.1355 C.2       1 <0>        -0.1040
      4 C4          0.1187    0.0674    2.3667 C.2       1 <0>         0.0722
      5 C5          0.3338   -0.4822    3.6196 C.2       1 <0>        -0.1840
      6 C6          0.2312    0.5572    4.5472 C.2       1 <0>        -0.1890
      7 C7         -0.0383    1.6995    3.8678 C.2       1 <0>        -0.0226
      8 N1         -0.1044    1.4178    2.5405 N.pl3     1 <0>        -0.3945
      9 C8         -0.3590    2.3428    1.5198 C.ar      1 <0>         0.1503
     10 C9          0.5160    2.4536    0.4473 C.ar      1 <0>        -0.1000
     11 C10         0.2626    3.3665   -0.5576 C.ar      1 <0>        -0.0650
     12 C11        -0.8616    4.1703   -0.4962 C.ar      1 <0>        -0.0989
     13 C12        -1.7351    4.0621    0.5710 C.ar      1 <0>        -0.0729
     14 C13        -1.4899    3.1467    1.5757 C.ar      1 <0>        -0.1147
     15 I1         -1.2416    5.5547   -2.0220 I         1 <0>        -0.0406
     16 C14        -0.9261   -1.2138   -0.9342 C.2       1 <0>         0.4507
     17 O1          0.2091   -1.7542   -1.3761 O.co2     1 <0>        -0.7023
     18 O2         -2.0126   -1.2217   -1.7060 O.co2     1 <0>        -0.7025
     19 H1         -2.3100    1.0212    0.5405 H         1 <0>         0.0593
     20 H2         -3.1091   -0.5653    0.4277 H         1 <0>         0.0735
     21 H3         -2.2936   -0.0848    1.9351 H         1 <0>         0.0520
     22 H4          1.0217   -1.1505    0.8202 H         1 <0>         0.1400
     23 H5          0.5417   -1.5192    3.8384 H         1 <0>         0.1404
     24 H6          0.3459    0.4669    5.6172 H         1 <0>         0.1361
     25 H7         -0.1747    2.6754    4.3099 H         1 <0>         0.1587
     26 H8          1.3942    1.8268    0.3992 H         1 <0>         0.1396
     27 H9          0.9428    3.4531   -1.3920 H         1 <0>         0.1376
     28 H10        -2.6120    4.6909    0.6164 H         1 <0>         0.1363
     29 H11        -2.1747    3.0593    2.4062 H         1 <0>         0.1374
@<TRIPOS>BOND
     1    1    2 1
     2    1   19 1
     3    1   20 1
     4    1   21 1
     5    2    3 2
     6    2   16 1
     7    3    4 1
     8    3   22 1
     9    4    8 1
    10    4    5 2
    11    5    6 1
    12    5   23 1
    13    6    7 2
    14    6   24 1
    15    7    8 1
    16    7   25 1
    17    8    9 1
    18    9   14 ar
    19    9   10 ar
    20   10   11 ar
    21   10   26 1
    22   11   12 ar
    23   11   27 1
    24   12   13 ar
    25   12   15 1
    26   13   14 ar
    27   13   28 1
    28   14   29 1
    29   16   17 2
    30   16   18 1
@<TRIPOS>MOLECULE
ZINC60441829
   35    37     0     0     0
SMALL
USER_CHARGES

@<TRIPOS>ATOM
      1 C1         -0.0166    1.3766    0.0096 C.ar      1 <0>        -0.0707
      2 C2          1.1707    2.0859    0.0021 C.ar      1 <0>        -0.1727
      3 C3          2.3799    1.4157   -0.0135 C.ar      1 <0>        -0.0442
      4 C4          2.4059    0.0347   -0.0211 C.ar      1 <0>        -0.1481
      5 C5          1.2154   -0.6807   -0.0131 C.ar      1 <0>         0.2760
      6 C6          0.0021   -0.0041    0.0020 C.ar      1 <0>        -0.2432
      7 N1          1.2380   -2.0772   -0.0208 N.2       1 <0>        -1.0865
      8 S1         -0.1825   -2.9284   -0.0112 S.o2      1 <0>         2.6017
      9 O1         -0.8016   -2.6713    1.2417 O.2       1 <0>        -1.0102
     10 O2         -0.8263   -2.6580   -1.2488 O.2       1 <0>        -1.0104
     11 C7          0.2357   -4.6400   -0.0245 C.ar      1 <0>        -0.7169
     12 C8          0.3936   -5.3046   -1.2285 C.ar      1 <0>         0.2569
     13 C9          0.7222   -6.6493   -1.2390 C.ar      1 <0>        -0.2312
     14 C10         0.8932   -7.3294   -0.0454 C.ar      1 <0>         0.1975
     15 C11         0.7362   -6.6645    1.1587 C.ar      1 <0>        -0.2312
     16 C12         0.4118   -5.3187    1.1691 C.ar      1 <0>         0.2569
     17 F1          0.2631   -4.6688    2.3441 F         1 <0>        -0.0927
     18 F2          1.2129   -8.6419   -0.0555 F         1 <0>        -0.1205
     19 F3          0.2267   -4.6410   -2.3934 F         1 <0>        -0.0929
     20 C13         3.6711    2.1928   -0.0226 C.3       1 <0>         0.0828
     21 S2          3.6701    3.4777   -1.3472 S.3       1 <0>        -0.2623
     22 C14         4.8277    4.7182   -0.6493 C.3       1 <0>        -0.0839
     23 C15         4.5203    4.8296    0.8533 C.3       1 <0>        -0.0842
     24 S3          3.8162    3.2636    1.4652 S.3       1 <0>        -0.2669
     25 H1         -0.9594    1.9032    0.0259 H         1 <0>         0.1084
     26 H2          1.1532    3.1658    0.0080 H         1 <0>         0.1150
     27 H3          3.3508   -0.4882   -0.0336 H         1 <0>         0.1157
     28 H4         -0.9254   -0.5574    0.0082 H         1 <0>         0.0995
     29 H5          0.8447   -7.1680   -2.1783 H         1 <0>         0.1599
     30 H6          0.8693   -7.1951    2.0899 H         1 <0>         0.1600
     31 H7          4.5293    1.5274   -0.1165 H         1 <0>         0.1218
     32 H8          5.8565    4.3886   -0.7942 H         1 <0>         0.0931
     33 H9          4.6730    5.6831   -1.1323 H         1 <0>         0.1196
     34 H10         5.4405    5.0483    1.3952 H         1 <0>         0.1024
     35 H11         3.8053    5.6359    1.0172 H         1 <0>         0.1014
@<TRIPOS>BOND
     1    1    6 ar
     2    1    2 ar
     3    1   25 1
     4    2    3 ar
     5    2   26 1
     6    3    4 ar
     7    3   20 1
     8    4    5 ar
     9    4   27 1
    10    5    6 ar
    11    5    7 1
    12    6   28 1
    13    7    8 1
    14    8    9 2
    15    8   10 2
    16    8   11 1
    17   11   16 ar
    18   11   12 ar
    19   12   13 ar
    20   12   19 1
    21   13   14 ar
    22   13   29 1
    23   14   15 ar
    24   14   18 1
    25   15   16 ar
    26   15   30 1
    27   16   17 1
    28   20   24 1
    29   20   21 1
    30   20   31 1
    31   21   22 1
    32   22   23 1
    33   22   32 1
    34   22   33 1
    35   23   24 1
    36   23   34 1
    37   23   35 1
@<TRIPOS>MOLECULE
ZINC02488517
   38    41     0     0     0
SMALL
USER_CHARGES
(3-chlorophenyl)BLAHcarboxylic acid
@<TRIPOS>ATOM
      1 C1         -3.5700    2.3739    4.5358 C.ar      1 <0>        -0.1051
      2 C2         -3.0724    2.1196    3.2711 C.ar      1 <0>        -0.0998
      3 C3         -2.3150    0.9865    3.0408 C.ar      1 <0>        -0.0741
      4 C4         -2.0458    0.1123    4.0773 C.ar      1 <0>        -0.0984
      5 C5         -2.5389    0.3690    5.3440 C.ar      1 <0>        -0.0332
      6 C6         -3.3015    1.5007    5.5727 C.ar      1 <0>        -0.1118
      7 Cl1        -2.2008   -0.7281    6.6462 Cl        1 <0>        -0.0722
      8 C7         -1.7774    0.7073    1.6609 C.3       1 <0>         0.2114
      9 H1         -1.5493   -0.3531    1.5539 H         1 <0>         0.0784
     10 C8         -0.5337    1.5397    1.4045 C.3       1 <0>        -0.1014
     11 H2         -0.7410    2.6094    1.4340 H         1 <0>         0.0942
     12 C9          0.7232    1.1861    2.2110 C.3       1 <0>        -0.0828
     13 C10         1.8355    1.6067    1.2483 C.2       1 <0>        -0.1840
     14 C11         1.3935    1.5627   -0.0029 C.2       1 <0>        -0.1318
     15 C12        -0.0127    1.0858    0.0080 C.3       1 <0>        -0.0184
     16 H3          0.0021   -0.0041    0.0020 H         1 <0>         0.0771
     17 C13        -1.0028    1.5354   -0.9939 C.ar      1 <0>        -0.1627
     18 C14        -0.6427    1.9361   -2.2570 C.ar      1 <0>        -0.0353
     19 C15        -1.6224    2.3362   -3.1712 C.ar      1 <0>        -0.1625
     20 C16        -2.9685    2.3250   -2.7919 C.ar      1 <0>        -0.0342
     21 C17        -3.3150    1.8823   -1.5761 C.ar      1 <0>        -0.2016
     22 C18        -2.3518    1.5057   -0.6424 C.ar      1 <0>         0.2110
     23 N1         -2.7575    1.1276    0.6364 N.pl3     1 <0>        -0.7482
     24 C19        -1.2384    2.7668   -4.5274 C.2       1 <0>         0.4929
     25 O1         -0.0679    2.7749   -4.8536 O.co2     1 <0>        -0.6391
     26 H4         -4.1652    3.2573    4.7142 H         1 <0>         0.1329
     27 H5         -3.2787    2.8046    2.4620 H         1 <0>         0.1330
     28 H6         -1.4502   -0.7706    3.8982 H         1 <0>         0.1342
     29 H7         -3.6865    1.7018    6.5615 H         1 <0>         0.1320
     30 H8          0.7677    0.1164    2.4159 H         1 <0>         0.0760
     31 H9          0.7686    1.7615    3.1357 H         1 <0>         0.0687
     32 H10         2.8332    1.8966    1.5431 H         1 <0>         0.1266
     33 H11         1.9617    1.8295   -0.8817 H         1 <0>         0.1334
     34 H12         0.3983    1.9421   -2.5447 H         1 <0>         0.1239
     35 H13        -3.7294    2.6272   -3.4963 H         1 <0>         0.1283
     36 H14        -4.3598    1.8641   -1.3033 H         1 <0>         0.1100
     37 H15        -3.7015    1.1406    0.8588 H         1 <0>         0.3954
     38 O2         -2.1854    3.1516   -5.4055 O.co2     1 <0>        -0.7626
@<TRIPOS>BOND
     1    1    6 ar
     2    1    2 ar
     3    1   26 1
     4    2    3 ar
     5    2   27 1
     6    3    4 ar
     7    3    8 1
     8    4    5 ar
     9    4   28 1
    10    5    6 ar
    11    5    7 1
    12    6   29 1
    13    8    9 1
    14    8   23 1
    15    8   10 1
    16   10   11 1
    17   10   15 1
    18   10   12 1
    19   12   13 1
    20   12   30 1
    21   12   31 1
    22   13   14 2
    23   13   32 1
    24   14   15 1
    25   14   33 1
    26   15   16 1
    27   15   17 1
    28   17   22 ar
    29   17   18 ar
    30   18   19 ar
    31   18   34 1
    32   19   20 ar
    33   19   24 1
    34   20   21 ar
    35   20   35 1
    36   21   22 ar
    37   21   36 1
    38   22   23 1
    39   23   37 1
    40   24   25 2
    41   24   38 1
@<TRIPOS>MOLECULE
ZINC21512935
   31    32     0     0     0
SMALL
USER_CHARGES
2,4-dichloro-6-[[(5-chloro-2-methoxy-phenyl)amino]methyl]phenol
@<TRIPOS>ATOM
      1 C1          1.2839   -0.6354   -0.0136 C.3       1 <0>         0.0302
      2 O1          0.0021   -0.0041    0.0020 O.3       1 <0>        -0.3156
      3 C2         -0.0164    1.3561    0.0095 C.ar      1 <0>         0.0460
      4 C3          1.1726    2.0662    0.0020 C.ar      1 <0>        -0.1501
      5 C4          1.1530    3.4489    0.0091 C.ar      1 <0>        -0.1559
      6 C5         -0.0529    4.1271    0.0238 C.ar      1 <0>        -0.0085
      7 C6         -1.2445    3.4247    0.0314 C.ar      1 <0>        -0.1797
      8 C7         -1.2314    2.0376    0.0189 C.ar      1 <0>         0.2343
      9 N1         -2.4357    1.3246    0.0212 N.pl3     1 <0>        -0.7198
     10 C8         -3.7124    2.0431    0.0311 C.3       1 <0>         0.2044
     11 C9         -4.8470    1.0513    0.0317 C.ar      1 <0>        -0.2496
     12 C10        -5.5100    0.7588   -1.1451 C.ar      1 <0>        -0.0293
     13 C11        -6.5514   -0.1518   -1.1458 C.ar      1 <0>        -0.1661
     14 C12        -6.9318   -0.7719    0.0314 C.ar      1 <0>        -0.0431
     15 C13        -6.2716   -0.4819    1.2106 C.ar      1 <0>        -0.1661
     16 C14        -5.2225    0.4276    1.2117 C.ar      1 <0>         0.2975
     17 O2         -4.5677    0.7100    2.3691 O.3       1 <0>        -0.6759
     18 Cl1        -6.7484   -1.2602    2.6873 Cl        1 <0>        -0.1002
     19 Cl2        -7.3819   -0.5175   -2.6257 Cl        1 <0>        -0.1164
     20 Cl3        -0.0705    5.8629    0.0332 Cl        1 <0>        -0.0855
     21 H1          1.1546   -1.7278   -0.0183 H         1 <0>         0.0971
     22 H2          1.8505   -0.3370    0.8808 H         1 <0>         0.0520
     23 H3          1.8334   -0.3274   -0.9154 H         1 <0>         0.0511
     24 H4          2.1156    1.5399   -0.0099 H         1 <0>         0.1295
     25 H5          2.0813    4.0008    0.0028 H         1 <0>         0.1244
     26 H6         -2.1847    3.9560    0.0428 H         1 <0>         0.1358
     27 H7         -2.4236    0.2247    0.0156 H         1 <0>         0.4279
     28 H8         -3.7732    2.6703    0.9327 H         1 <0>         0.0641
     29 H9         -3.7820    2.6794   -0.8635 H         1 <0>         0.0465
     30 H10        -5.2146    1.2413   -2.0650 H         1 <0>         0.1087
     31 H11        -7.7450   -1.4825    0.0289 H         1 <0>         0.1124
@<TRIPOS>BOND
     1    1    2 1
     2    1   21 1
     3    1   22 1
     4    1   23 1
     5    2    3 1
     6    3    8 ar
     7    3    4 ar
     8    4    5 ar
     9    4   24 1
    10    5    6 ar
    11    5   25 1
    12    6    7 ar
    13    6   20 1
    14    7    8 ar
    15    7   26 1
    16    8    9 1
    17    9   10 1
    18    9   27 1
    19   10   11 1
    20   10   28 1
    21   10   29 1
    22   11   16 ar
    23   11   12 ar
    24   12   13 ar
    25   12   30 1
    26   13   14 ar
    27   13   19 1
    28   14   15 ar
    29   14   31 1
    30   15   16 ar
    31   15   18 1
    32   16   17 1
@<TRIPOS>MOLECULE
ZINC00818320
   37    39     0     0     0
SMALL
USER_CHARGES

@<TRIPOS>ATOM
      1 C1          0.7570    0.0755   -1.1611 C.ar      1 <0>        -0.1238
      2 C2          1.9421    0.7845   -1.1664 C.ar      1 <0>        -0.1062
      3 C3          2.3777    1.4153   -0.0142 C.ar      1 <0>        -0.0405
      4 C4          1.6274    1.3377    1.1460 C.ar      1 <0>        -0.1054
      5 C5          0.4418    0.6296    1.1571 C.ar      1 <0>        -0.0728
      6 C6          0.0021   -0.0041    0.0020 C.ar      1 <0>         0.1947
      7 N1         -1.1989   -0.7211    0.0101 N.pl3     1 <0>        -0.5678
      8 C7         -2.4015   -0.0688    0.1228 C.2       1 <0>         0.4441
      9 C8         -3.5166   -0.6398   -0.5130 C.2       1 <0>        -0.3174
     10 C9         -3.3259   -1.8849   -1.2606 C.2       1 <0>         0.5970
     11 O1         -4.1776   -2.2657   -2.0434 O.2       1 <0>        -0.5667
     12 N2         -2.2023   -2.6066   -1.0775 N.am      1 <0>        -0.7412
     13 C10        -1.1964   -2.1833   -0.1078 C.3       1 <0>         0.4100
     14 C11        -1.5158   -2.8016    1.2550 C.3       1 <0>        -0.1339
     15 C12        -0.4634   -2.3595    2.2739 C.3       1 <0>        -0.1225
     16 C13         0.9192   -2.8261    1.8138 C.3       1 <0>        -0.1144
     17 C14         1.2385   -2.2101    0.4502 C.3       1 <0>        -0.1566
     18 C15         0.1855   -2.6519   -0.5682 C.3       1 <0>        -0.1316
     19 C16        -4.8055   -0.0211   -0.4321 C.1       1 <0>         0.3360
     20 N3         -5.8280    0.4696   -0.3678 N.1       1 <0>        -0.4944
     21 S1         -2.5418    1.4327    1.0342 S.3       1 <0>        -0.7858
     22 Cl1         3.8682    2.3053   -0.0242 Cl        1 <0>        -0.0823
     23 H1          0.4153   -0.4129   -2.0617 H         1 <0>         0.1314
     24 H2          2.5297    0.8464   -2.0704 H         1 <0>         0.1319
     25 H3          1.9696    1.8309    2.0438 H         1 <0>         0.1333
     26 H4         -0.1430    0.5687    2.0630 H         1 <0>         0.1478
     27 H5         -2.0593   -3.4135   -1.5967 H         1 <0>         0.4005
     28 H6         -2.5009   -2.4697    1.5828 H         1 <0>         0.0748
     29 H7         -1.5073   -3.8884    1.1720 H         1 <0>         0.0755
     30 H8         -0.4713   -1.2726    2.3561 H         1 <0>         0.0755
     31 H9         -0.6907   -2.7991    3.2450 H         1 <0>         0.0637
     32 H10         1.6691   -2.5108    2.5394 H         1 <0>         0.0620
     33 H11         0.9273   -3.9130    1.7323 H         1 <0>         0.0577
     34 H12         1.2314   -1.1232    0.5319 H         1 <0>         0.1029
     35 H13         2.2232   -2.5435    0.1226 H         1 <0>         0.0649
     36 H14         0.1922   -3.7389   -0.6496 H         1 <0>         0.0813
     37 H15         0.4131   -2.2132   -1.5397 H         1 <0>         0.0784
@<TRIPOS>BOND
     1    1    6 ar
     2    1    2 ar
     3    1   23 1
     4    2    3 ar
     5    2   24 1
     6    3    4 ar
     7    3   22 1
     8    4    5 ar
     9    4   25 1
    10    5    6 ar
    11    5   26 1
    12    6    7 1
    13    7   13 1
    14    7    8 1
    15    8    9 2
    16    8   21 1
    17    9   10 1
    18    9   19 1
    19   10   11 2
    20   10   12 am
    21   12   13 1
    22   12   27 1
    23   13   18 1
    24   13   14 1
    25   14   15 1
    26   14   28 1
    27   14   29 1
    28   15   16 1
    29   15   30 1
    30   15   31 1
    31   16   17 1
    32   16   32 1
    33   16   33 1
    34   17   18 1
    35   17   34 1
    36   17   35 1
    37   18   36 1
    38   18   37 1
    39   19   20 3
@<TRIPOS>MOLECULE
ZINC40940954
   40    41     0     0     0
SMALL
USER_CHARGES

@<TRIPOS>ATOM
      1 C1          1.2029   -1.1545   -1.9592 C.ar      1 <0>        -0.0993
      2 C2          2.4534   -0.6109   -1.7312 C.ar      1 <0>        -0.0854
      3 C3          2.9453    0.3691   -2.5724 C.ar      1 <0>        -0.0858
      4 C4          2.1865    0.8065   -3.6438 C.ar      1 <0>        -0.0242
      5 C5          0.9355    0.2627   -3.8727 C.ar      1 <0>        -0.1028
      6 C6          0.4434   -0.7180   -3.0299 C.ar      1 <0>        -0.0333
      7 Cl1        -1.1266   -1.4012   -3.3164 Cl        1 <0>        -0.0674
      8 Cl2         2.8043    2.0379   -4.7000 Cl        1 <0>        -0.0518
      9 C7          4.3081    0.9618   -2.3226 C.3       1 <0>         0.1379
     10 H1          4.7862    1.1881   -3.2757 H         1 <0>         0.1102
     11 C8          4.1631    2.2480   -1.5068 C.3       1 <0>        -0.1449
     12 C9          5.5287    2.9251   -1.3750 C.3       1 <0>        -0.0166
     13 C10         5.3729    4.2441   -0.6155 C.3       1 <0>        -0.1166
     14 C11         4.4194    5.1638   -1.3811 C.3       1 <0>        -0.1182
     15 C12         4.9876    5.4415   -2.7743 C.3       1 <0>        -0.1152
     16 C13         5.1434    4.1225   -3.5337 C.3       1 <0>        -0.1264
     17 C14         6.0969    3.2028   -2.7682 C.3       1 <0>        -0.1146
     18 C15         6.4822    2.0054   -0.6094 C.3       1 <0>        -0.1889
     19 C16         5.8749    1.6493    0.7230 C.2       1 <0>         0.4961
     20 O1          4.8449    2.1902    1.0876 O.co2     1 <0>        -0.6925
     21 O2          6.4137    0.8203    1.4364 O.co2     1 <0>        -0.7085
     22 O3          5.1090    0.0260   -1.5982 O.3       1 <0>        -0.5428
     23 H2          0.8207   -1.9232   -1.3039 H         1 <0>         0.1398
     24 H3          3.0459   -0.9519   -0.8952 H         1 <0>         0.1447
     25 H4          0.3430    0.6037   -4.7087 H         1 <0>         0.1413
     26 H5          3.4705    2.9220   -2.0110 H         1 <0>         0.0603
     27 H6          3.7793    2.0080   -0.5152 H         1 <0>         0.1133
     28 H7          4.9682    4.0463    0.3770 H         1 <0>         0.1031
     29 H8          6.3458    4.7265   -0.5216 H         1 <0>         0.0405
     30 H9          3.4465    4.6815   -1.4749 H         1 <0>         0.0597
     31 H10         4.3084    6.1035   -0.8400 H         1 <0>         0.0493
     32 H11         4.3083    6.0967   -3.3196 H         1 <0>         0.0485
     33 H12         5.9605    5.9239   -2.6804 H         1 <0>         0.0540
     34 H13         4.1705    3.6402   -3.6276 H         1 <0>         0.0700
     35 H14         5.5482    4.3204   -4.5263 H         1 <0>         0.0468
     36 H15         7.0698    3.6852   -2.6743 H         1 <0>         0.0529
     37 H16         6.2079    2.2631   -3.3092 H         1 <0>         0.0562
     38 H17         6.6514    1.0962   -1.1863 H         1 <0>         0.0887
     39 H18         7.4315    2.5171   -0.4510 H         1 <0>         0.0429
     40 H19         4.7435   -0.2215   -0.7378 H         1 <0>         0.3791
@<TRIPOS>BOND
     1    1    6 ar
     2    1    2 ar
     3    1   23 1
     4    2    3 ar
     5    2   24 1
     6    3    4 ar
     7    3    9 1
     8    4    5 ar
     9    4    8 1
    10    5    6 ar
    11    5   25 1
    12    6    7 1
    13    9   10 1
    14    9   11 1
    15    9   22 1
    16   11   12 1
    17   11   26 1
    18   11   27 1
    19   12   17 1
    20   12   13 1
    21   12   18 1
    22   13   14 1
    23   13   28 1
    24   13   29 1
    25   14   15 1
    26   14   30 1
    27   14   31 1
    28   15   16 1
    29   15   32 1
    30   15   33 1
    31   16   17 1
    32   16   34 1
    33   16   35 1
    34   17   36 1
    35   17   37 1
    36   18   19 1
    37   18   38 1
    38   18   39 1
    39   19   20 2
    40   19   21 1
    41   22   40 1
@<TRIPOS>MOLECULE
ZINC13572510
   43    46     0     0     0
SMALL
USER_CHARGES

@<TRIPOS>ATOM
      1 C1         -0.0184    1.5028    0.0103 C.3       1 <0>        -0.1075
      2 C2          0.0021   -0.0041    0.0020 C.ar      1 <0>        -0.1049
      3 C3          0.0057   -0.6887   -1.1989 C.ar      1 <0>        -0.1253
      4 C4          0.0245   -2.0709   -1.2065 C.ar      1 <0>        -0.1167
      5 C5          0.0400   -2.7685   -0.0132 C.ar      1 <0>        -0.0549
      6 C6          0.0373   -2.0839    1.1877 C.ar      1 <0>        -0.0888
      7 C7          0.0229   -0.7016    1.1953 C.ar      1 <0>        -0.1220
      8 C8          0.0595   -4.2753   -0.0215 C.3       1 <0>         0.1878
      9 H1         -0.2937   -4.6301   -0.9897 H         1 <0>         0.0728
     10 C9          1.4724   -4.7497    0.1901 C.2       1 <0>        -0.2100
     11 C10         1.8597   -5.2081    1.3787 C.2       1 <0>         0.1642
     12 C11         3.2610   -5.6356    1.5873 C.ar      1 <0>         0.0014
     13 C12         3.6125   -6.4129    2.6871 C.ar      1 <0>        -0.1357
     14 C13         4.9295   -6.8115    2.8509 C.ar      1 <0>         0.1238
     15 C14         5.8902   -6.4374    1.9210 C.ar      1 <0>        -0.2080
     16 C15         5.5413   -5.6603    0.8314 C.ar      1 <0>        -0.0792
     17 C16         4.2345   -5.2528    0.6649 C.ar      1 <0>        -0.1004
     18 C17         3.8455   -4.3753   -0.4960 C.3       1 <0>        -0.0716
     19 C18         2.4379   -4.7288   -0.9680 C.3       1 <0>        -0.0574
     20 O1          5.2811   -7.5691    3.9231 O.3       1 <0>        -0.3163
     21 C19         6.6559   -7.9443    4.0294 C.3       1 <0>         0.0287
     22 N1          0.9405   -5.2899    2.4284 N.pl3     1 <0>        -0.6828
     23 C20        -0.4066   -5.2302    2.1521 C.2       1 <0>         0.5469
     24 N2         -0.8319   -4.7678    1.0191 N.2       1 <0>        -0.6100
     25 S1         -1.5665   -5.7898    3.3546 S.3       1 <0>        -0.8581
     26 H2          1.0042    1.8801    0.0026 H         1 <0>         0.0630
     27 H3         -0.5455    1.8639   -0.8728 H         1 <0>         0.0608
     28 H4         -0.5286    1.8543    0.9071 H         1 <0>         0.0612
     29 H5         -0.0064   -0.1436   -2.1312 H         1 <0>         0.1139
     30 H6          0.0266   -2.6057   -2.1448 H         1 <0>         0.1163
     31 H7          0.0491   -2.6289    2.1200 H         1 <0>         0.1153
     32 H8          0.0245   -0.1667    2.1335 H         1 <0>         0.1133
     33 H9          2.8633   -6.7033    3.4087 H         1 <0>         0.1344
     34 H10         6.9147   -6.7544    2.0492 H         1 <0>         0.1263
     35 H11         6.2926   -5.3722    0.1111 H         1 <0>         0.1264
     36 H12         3.8711   -3.3310   -0.1848 H         1 <0>         0.0756
     37 H13         4.5497   -4.5248   -1.3145 H         1 <0>         0.0739
     38 H14         2.4541   -5.7116   -1.4390 H         1 <0>         0.0638
     39 H15         2.1078   -3.9884   -1.6967 H         1 <0>         0.0736
     40 H16         6.8001   -8.5451    4.9274 H         1 <0>         0.0981
     41 H17         6.9426   -8.5258    3.1532 H         1 <0>         0.0536
     42 H18         7.2735   -7.0481    4.0888 H         1 <0>         0.0536
     43 H19         1.2489   -5.3882    3.3428 H         1 <0>         0.4010
@<TRIPOS>BOND
     1    1    2 1
     2    1   26 1
     3    1   27 1
     4    1   28 1
     5    2    7 ar
     6    2    3 ar
     7    3    4 ar
     8    3   29 1
     9    4    5 ar
    10    4   30 1
    11    5    6 ar
    12    5    8 1
    13    6    7 ar
    14    6   31 1
    15    7   32 1
    16    8    9 1
    17    8   24 1
    18    8   10 1
    19   10   19 1
    20   10   11 2
    21   11   12 1
    22   11   22 1
    23   12   17 ar
    24   12   13 ar
    25   13   14 ar
    26   13   33 1
    27   14   15 ar
    28   14   20 1
    29   15   16 ar
    30   15   34 1
    31   16   17 ar
    32   16   35 1
    33   17   18 1
    34   18   19 1
    35   18   36 1
    36   18   37 1
    37   19   38 1
    38   19   39 1
    39   20   21 1
    40   21   40 1
    41   21   41 1
    42   21   42 1
    43   22   23 1
    44   22   43 1
    45   23   24 2
    46   23   25 1
@<TRIPOS>MOLECULE
ZINC11828412
   39    39     0     0     0
SMALL
USER_CHARGES
(2S)-2-(4-bromo-2-isopropyl-5-methyl-phenoxy)-3-methyl-butanoic acid
@<TRIPOS>ATOM
      1 C1          0.0404   -4.2566    0.3254 C.3       1 <0>        -0.1238
      2 C2          0.0305   -2.7515    0.2511 C.ar      1 <0>        -0.0200
      3 C3          1.2209   -2.0576    0.1486 C.ar      1 <0>        -0.2141
      4 C4          1.2113   -0.6723    0.0803 C.ar      1 <0>         0.1715
      5 C5          0.0058    0.0138    0.1150 C.ar      1 <0>        -0.1171
      6 C6         -1.1816   -0.6834    0.2232 C.ar      1 <0>        -0.0453
      7 C7         -1.1702   -2.0657    0.2851 C.ar      1 <0>        -0.1422
      8 Br1        -2.7979   -3.0180    0.4254 Br        1 <0>        -0.0677
      9 C8         -0.0077    1.5189    0.0408 C.3       1 <0>        -0.0525
     10 C9         -0.8034    1.9619   -1.1886 C.3       1 <0>        -0.1391
     11 C10        -0.6611    2.0859    1.3028 C.3       1 <0>        -0.1399
     12 O1          2.3812    0.0123   -0.0201 O.3       1 <0>        -0.2709
     13 C11         3.5876   -0.7475    0.0757 C.3       1 <0>         0.0401
     14 H1          3.3810   -1.6966    0.5702 H         1 <0>         0.0767
     15 C12         4.1363   -1.0125   -1.3277 C.3       1 <0>        -0.0969
     16 C13         3.1032   -1.7962   -2.1396 C.3       1 <0>        -0.1486
     17 C14         4.4264    0.3198   -2.0218 C.3       1 <0>        -0.1367
     18 C15         4.6052    0.0245    0.8754 C.2       1 <0>         0.4723
     19 O2          4.3260    1.1136    1.3179 O.co2     1 <0>        -0.6140
     20 H2          0.1013   -4.5685    1.3681 H         1 <0>         0.0762
     21 H3         -0.8750   -4.6483   -0.1181 H         1 <0>         0.0752
     22 H4          0.9020   -4.6417   -0.2199 H         1 <0>         0.0698
     23 H5          2.1582   -2.5934    0.1221 H         1 <0>         0.1411
     24 H6         -2.1199   -0.1496    0.2548 H         1 <0>         0.1316
     25 H7          1.0150    1.8880   -0.0359 H         1 <0>         0.0954
     26 H8         -1.8261    1.5927   -1.1118 H         1 <0>         0.0510
     27 H9         -0.8132    3.0505   -1.2422 H         1 <0>         0.0559
     28 H10        -0.3379    1.5579   -2.0876 H         1 <0>         0.0537
     29 H11        -0.0942    1.7703    2.1786 H         1 <0>         0.0574
     30 H12        -0.6709    3.1745    1.2491 H         1 <0>         0.0560
     31 H13        -1.6838    1.7167    1.3796 H         1 <0>         0.0500
     32 H14         5.0566   -1.5920   -1.2546 H         1 <0>         0.0893
     33 H15         3.4940   -1.9850   -3.1395 H         1 <0>         0.0528
     34 H16         2.8965   -2.7454   -1.6451 H         1 <0>         0.0514
     35 H17         2.1829   -1.2167   -2.2127 H         1 <0>         0.0540
     36 H18         5.1624    0.8782   -1.4434 H         1 <0>         0.0613
     37 H19         4.8173    0.1310   -3.0217 H         1 <0>         0.0454
     38 H20         3.5061    0.8993   -2.0949 H         1 <0>         0.0546
     39 O3          5.8219   -0.4978    1.0962 O.co2     1 <0>        -0.7539
@<TRIPOS>BOND
     1    1    2 1
     2    1   20 1
     3    1   21 1
     4    1   22 1
     5    2    7 ar
     6    2    3 ar
     7    3    4 ar
     8    3   23 1
     9    4    5 ar
    10    4   12 1
    11    5    6 ar
    12    5    9 1
    13    6    7 ar
    14    6   24 1
    15    7    8 1
    16    9   10 1
    17    9   11 1
    18    9   25 1
    19   10   26 1
    20   10   27 1
    21   10   28 1
    22   11   29 1
    23   11   30 1
    24   11   31 1
    25   12   13 1
    26   13   14 1
    27   13   15 1
    28   13   18 1
    29   15   16 1
    30   15   17 1
    31   15   32 1
    32   16   33 1
    33   16   34 1
    34   16   35 1
    35   17   36 1
    36   17   37 1
    37   17   38 1
    38   18   19 2
    39   18   39 1
@<TRIPOS>MOLECULE
ZINC17128855
   30    31     0     0     0
SMALL
USER_CHARGES
1-[4-chloro-3-[(3,5-dichloro-2-hydroxy-phenyl)methyleneamino]phenyl]ethanone
@<TRIPOS>ATOM
      1 C1         -3.8232    3.0820    0.0546 C.3       1 <0>        -0.2030
      2 C2         -2.5316    3.8584    0.0470 C.2       1 <0>         0.3961
      3 O1         -2.5530    5.0708    0.0541 O.2       1 <0>        -0.4600
      4 C3         -1.2448    3.1454    0.0308 C.ar      1 <0>        -0.1563
      5 C4         -1.2182    1.7457    0.0173 C.ar      1 <0>        -0.0985
      6 C5         -0.0126    1.0758    0.0080 C.ar      1 <0>        -0.1119
      7 C6          1.1775    1.7800    0.0004 C.ar      1 <0>        -0.0107
      8 C7          1.1666    3.1792    0.0085 C.ar      1 <0>         0.1172
      9 C8         -0.0471    3.8630    0.0237 C.ar      1 <0>        -0.1087
     10 N1          2.3457    3.8745    0.0018 N.2       1 <0>        -0.4595
     11 C9          2.4745    4.9463    0.7325 C.2       1 <0>         0.2418
     12 C10         3.7411    5.6932    0.7254 C.ar      1 <0>        -0.2355
     13 C11         3.8837    6.8439    1.5079 C.ar      1 <0>        -0.0107
     14 C12         5.0743    7.5392    1.4969 C.ar      1 <0>        -0.1660
     15 C13         6.1315    7.1033    0.7131 C.ar      1 <0>        -0.0372
     16 C14         6.0038    5.9679   -0.0647 C.ar      1 <0>        -0.1541
     17 C15         4.8154    5.2527   -0.0616 C.ar      1 <0>         0.3107
     18 O2          4.6906    4.1344   -0.8211 O.3       1 <0>        -0.6074
     19 Cl1         7.3348    5.4328   -1.0423 Cl        1 <0>        -0.0951
     20 Cl2         5.2502    8.9672    2.4684 Cl        1 <0>        -0.1123
     21 Cl3         2.6888    0.9261   -0.0186 Cl        1 <0>        -0.0393
     22 H1         -3.6032    2.0043    0.0464 H         1 <0>         0.0854
     23 H2         -4.4129    3.3426   -0.8366 H         1 <0>         0.0940
     24 H3         -4.3962    3.3324    0.9596 H         1 <0>         0.0940
     25 H4         -2.1437    1.1891    0.0187 H         1 <0>         0.1373
     26 H5          0.0021   -0.0041    0.0020 H         1 <0>         0.1369
     27 H6         -0.0615    4.9428    0.0297 H         1 <0>         0.1368
     28 H7          1.6357    5.2920    1.3544 H         1 <0>         0.0867
     29 H8          3.0624    7.1874    2.1194 H         1 <0>         0.1141
     30 H9          7.0605    7.6540    0.7105 H         1 <0>         0.1152
@<TRIPOS>BOND
     1    1    2 1
     2    1   22 1
     3    1   23 1
     4    1   24 1
     5    2    3 2
     6    2    4 1
     7    4    9 ar
     8    4    5 ar
     9    5    6 ar
    10    5   25 1
    11    6    7 ar
    12    6   26 1
    13    7    8 ar
    14    7   21 1
    15    8    9 ar
    16    8   10 1
    17    9   27 1
    18   10   11 2
    19   11   12 1
    20   11   28 1
    21   12   17 ar
    22   12   13 ar
    23   13   14 ar
    24   13   29 1
    25   14   15 ar
    26   14   20 1
    27   15   16 ar
    28   15   30 1
    29   16   17 ar
    30   16   19 1
    31   17   18 1
@<TRIPOS>MOLECULE
ZINC03947549
   51    53     0     0     0
SMALL
USER_CHARGES

@<TRIPOS>ATOM
      1 C1         -0.0947    1.2231   -0.5170 C.3       1 <0>        -0.1394
      2 C2         -0.0636   -0.3026   -0.4298 C.3       1 <0>         0.0059
      3 C3         -1.4849   -0.8635   -0.3769 C.3       1 <0>        -0.1011
      4 C4         -2.1605   -0.4596    0.9319 C.3       1 <0>        -0.1089
      5 C5         -1.3855   -0.9408    2.1365 C.3       1 <0>        -0.0444
      6 H1         -1.7340   -1.9514    2.3787 H         1 <0>         0.0696
      7 C6          0.0975   -1.0196    1.9219 C.2       1 <0>        -0.0775
      8 C7          0.6857   -0.7313    0.7994 C.2       1 <0>        -0.1709
      9 C8          0.9507   -1.4853    3.0903 C.3       1 <0>        -0.0894
     10 C9          0.5956   -0.6382    4.3206 C.3       1 <0>        -0.1006
     11 C10        -0.9146   -0.6896    4.5507 C.3       1 <0>        -0.0437
     12 H2         -1.1867   -1.7733    4.5465 H         1 <0>         0.0716
     13 C11        -1.6585   -0.0658    3.3758 C.3       1 <0>        -0.0332
     14 C12        -3.1657   -0.0712    3.6312 C.3       1 <0>        -0.1040
     15 C13        -3.4763    0.6615    4.9344 C.3       1 <0>        -0.1122
     16 C14        -2.8098   -0.0593    6.0998 C.3       1 <0>        -0.0914
     17 C15        -1.2962   -0.1553    5.9157 C.3       1 <0>        -0.1176
     18 C16        -0.6522    1.1973    6.2184 C.3       1 <0>        -0.1175
     19 C17        -0.7956   -1.1373    6.9699 C.2       1 <0>         0.4990
     20 O1         -0.4790   -0.7350    8.0764 O.co2     1 <0>        -0.6995
     21 O2         -0.7121   -2.3248    6.7061 O.co2     1 <0>        -0.6969
     22 C18        -1.1808    1.3570    3.0929 C.3       1 <0>        -0.1430
     23 C19         0.6404   -0.8516   -1.6493 C.2       1 <0>        -0.1323
     24 C20         1.1033   -0.0337   -2.5620 C.2       1 <0>        -0.2082
     25 H3          0.9250    1.6050   -0.5669 H         1 <0>         0.0553
     26 H4         -0.6399    1.5249   -1.4112 H         1 <0>         0.0533
     27 H5         -0.5913    1.6274    0.3651 H         1 <0>         0.0632
     28 H6         -2.0619   -0.4699   -1.2178 H         1 <0>         0.0593
     29 H7         -1.4526   -1.9522   -0.4493 H         1 <0>         0.0610
     30 H8         -2.3144    0.6135    0.9489 H         1 <0>         0.0691
     31 H9         -3.1563   -0.9300    0.9539 H         1 <0>         0.0563
     32 H10         1.7617   -0.8046    0.7469 H         1 <0>         0.0995
     33 H11         0.7398   -2.5343    3.3012 H         1 <0>         0.0720
     34 H12         2.0054   -1.3614    2.8529 H         1 <0>         0.0605
     35 H13         1.1226   -1.0594    5.1814 H         1 <0>         0.0638
     36 H14         0.9448    0.3770    4.1667 H         1 <0>         0.0547
     37 H15        -3.6781    0.4231    2.8058 H         1 <0>         0.0543
     38 H16        -3.5167   -1.1033    3.7045 H         1 <0>         0.0579
     39 H17        -3.1506    1.6954    4.8844 H         1 <0>         0.0595
     40 H18        -4.5634    0.6549    5.0888 H         1 <0>         0.0463
     41 H19        -3.0212    0.4810    7.0275 H         1 <0>         0.0528
     42 H20        -3.2241   -1.0676    6.1891 H         1 <0>         0.0526
     43 H21        -1.0593    1.9522    5.5456 H         1 <0>         0.0365
     44 H22        -0.8641    1.4779    7.2501 H         1 <0>         0.0542
     45 H23         0.4260    1.1266    6.0752 H         1 <0>         0.0415
     46 H24        -1.6363    1.7164    2.1701 H         1 <0>         0.0466
     47 H25        -1.4695    2.0080    3.9181 H         1 <0>         0.0603
     48 H26        -0.0959    1.3620    2.9885 H         1 <0>         0.0564
     49 H27         0.7618   -1.9181   -1.7684 H         1 <0>         0.1046
     50 H28         0.9819    1.0328   -2.4429 H         1 <0>         0.1024
     51 H29         1.6063   -0.4260   -3.4335 H         1 <0>         0.0914
@<TRIPOS>BOND
     1    1    2 1
     2    1   25 1
     3    1   26 1
     4    1   27 1
     5    2    8 1
     6    2    3 1
     7    2   23 1
     8    3    4 1
     9    3   28 1
    10    3   29 1
    11    4    5 1
    12    4   30 1
    13    4   31 1
    14    5    6 1
    15    5   13 1
    16    5    7 1
    17    7    8 2
    18    7    9 1
    19    8   32 1
    20    9   10 1
    21    9   33 1
    22    9   34 1
    23   10   11 1
    24   10   35 1
    25   10   36 1
    26   11   12 1
    27   11   17 1
    28   11   13 1
    29   13   14 1
    30   13   22 1
    31   14   15 1
    32   14   37 1
    33   14   38 1
    34   15   16 1
    35   15   39 1
    36   15   40 1
    37   16   17 1
    38   16   41 1
    39   16   42 1
    40   17   18 1
    41   17   19 1
    42   18   43 1
    43   18   44 1
    44   18   45 1
    45   19   20 2
    46   19   21 1
    47   22   46 1
    48   22   47 1
    49   22   48 1
    50   23   24 2
    51   23   49 1
    52   24   50 1
    53   24   51 1
@<TRIPOS>MOLECULE
ZINC41958079
   32    34     0     0     0
SMALL
USER_CHARGES

@<TRIPOS>ATOM
      1 C1         -0.2893    0.8666   -0.7233 C.ar      1 <0>        -0.1235
      2 C2          0.8031    1.6915   -0.5295 C.ar      1 <0>        -0.1284
      3 C3          2.0587    1.1430   -0.3568 C.ar      1 <0>        -0.0901
      4 C4          2.2277   -0.2315   -0.3772 C.ar      1 <0>        -0.0505
      5 C5          1.1356   -1.0561   -0.5710 C.ar      1 <0>        -0.0773
      6 C6         -0.1228   -0.5042   -0.7439 C.ar      1 <0>        -0.1146
      7 C7          1.5778   -2.5037   -0.5529 C.3       1 <0>        -0.0712
      8 C8          3.1061   -2.4618   -0.7648 C.3       1 <0>        -0.1317
      9 C9          3.4786   -1.0684   -0.2154 C.3       1 <0>         0.0744
     10 C10         3.8589   -1.1645    1.2397 C.2       1 <0>         0.4914
     11 O1          3.0725   -1.6320    2.0457 O.co2     1 <0>        -0.6686
     12 O2          4.9529   -0.7748    1.6109 O.co2     1 <0>        -0.6637
     13 O3          4.5521   -0.5072   -0.9734 O.3       1 <0>        -0.2881
     14 C11         5.7097   -1.2179   -1.0235 C.ar      1 <0>         0.1883
     15 C12         5.8479   -2.3742   -0.2691 C.ar      1 <0>        -0.1533
     16 C13         7.0246   -3.0958   -0.3212 C.ar      1 <0>        -0.0673
     17 C14         8.0658   -2.6664   -1.1248 C.ar      1 <0>        -0.0781
     18 C15         7.9304   -1.5129   -1.8786 C.ar      1 <0>         0.0039
     19 C16         6.7517   -0.7913   -1.8331 C.ar      1 <0>        -0.1521
     20 Cl1         9.2382   -0.9760   -2.8861 Cl        1 <0>        -0.0609
     21 Cl2         9.5440   -3.5746   -1.1876 Cl        1 <0>        -0.0710
     22 H1         -1.2727    1.2937   -0.8540 H         1 <0>         0.1197
     23 H2          0.6747    2.7637   -0.5135 H         1 <0>         0.1206
     24 H3          2.9117    1.7880   -0.2058 H         1 <0>         0.1202
     25 H4         -0.9767   -1.1479   -0.8950 H         1 <0>         0.1181
     26 H5          1.3416   -2.9593    0.4087 H         1 <0>         0.0935
     27 H6          1.0989   -3.0556   -1.3617 H         1 <0>         0.0706
     28 H7          3.5983   -3.2482   -0.1925 H         1 <0>         0.0840
     29 H8          3.3528   -2.5395   -1.8236 H         1 <0>         0.0739
     30 H9          5.0359   -2.7096    0.3589 H         1 <0>         0.1514
     31 H10         7.1320   -3.9958    0.2660 H         1 <0>         0.1380
     32 H11         6.6442    0.1061   -2.4244 H         1 <0>         0.1425
@<TRIPOS>BOND
     1    1    6 ar
     2    1    2 ar
     3    1   22 1
     4    2    3 ar
     5    2   23 1
     6    3    4 ar
     7    3   24 1
     8    4    9 1
     9    4    5 ar
    10    5    6 ar
    11    5    7 1
    12    6   25 1
    13    7    8 1
    14    7   26 1
    15    7   27 1
    16    8    9 1
    17    8   28 1
    18    8   29 1
    19    9   10 1
    20    9   13 1
    21   10   11 2
    22   10   12 1
    23   13   14 1
    24   14   19 ar
    25   14   15 ar
    26   15   16 ar
    27   15   30 1
    28   16   17 ar
    29   16   31 1
    30   17   18 ar
    31   17   21 1
    32   18   19 ar
    33   18   20 1
    34   19   32 1
@<TRIPOS>MOLECULE
ZINC12652855
   40    42     0     0     0
SMALL
USER_CHARGES

@<TRIPOS>ATOM
      1 C1         -0.0048    1.2100    0.0177 C.3       1 <0>        -0.0973
      2 C2         -0.7516    1.6465   -1.2163 C.ar      1 <0>         0.1821
      3 C3         -2.1325    1.7038   -1.2136 C.ar      1 <0>        -0.3001
      4 C4         -2.7842    2.1134   -2.3764 C.ar      1 <0>         0.4540
      5 O1         -4.1369    2.1844   -2.4173 O.3       1 <0>        -0.6927
      6 N1         -2.0612    2.4332   -3.4424 N.ar      1 <0>        -0.6147
      7 C5         -0.7379    2.3655   -3.4061 C.ar      1 <0>         0.3318
      8 N2         -0.0915    1.9846   -2.3136 N.ar      1 <0>        -0.5852
      9 S1          0.1846    2.7989   -4.8434 S.3       1 <0>        -0.0485
     10 C6         -1.0836    3.2518   -6.0588 C.3       1 <0>        -0.0581
     11 C7         -0.4205    3.6489   -7.3525 C.ar      1 <0>        -0.0646
     12 C8         -0.0634    4.9665   -7.5700 C.ar      1 <0>        -0.1018
     13 C9          0.5449    5.3308   -8.7567 C.ar      1 <0>        -0.1220
     14 C10         0.7964    4.3775   -9.7256 C.ar      1 <0>        -0.1220
     15 C11         0.4400    3.0597   -9.5077 C.ar      1 <0>        -0.1219
     16 C12        -0.1644    2.6947   -8.3192 C.ar      1 <0>        -0.1018
     17 C13        -2.9165    1.3315    0.0184 C.3       1 <0>        -0.0058
     18 C14        -3.1924   -0.1500    0.0096 C.ar      1 <0>        -0.0470
     19 C15        -4.2758   -0.6469   -0.6907 C.ar      1 <0>        -0.0903
     20 C16        -4.5293   -2.0056   -0.6992 C.ar      1 <0>        -0.1130
     21 C17        -3.6986   -2.8683   -0.0065 C.ar      1 <0>        -0.0476
     22 C18        -2.6146   -2.3704    0.6942 C.ar      1 <0>        -0.1158
     23 C19        -2.3588   -1.0121    0.6973 C.ar      1 <0>        -0.1142
     24 Cl1        -4.0168   -4.5749   -0.0162 Cl        1 <0>        -0.0897
     25 H1          0.0428    0.1214    0.0476 H         1 <0>         0.0700
     26 H2          1.0059    1.6174   -0.0061 H         1 <0>         0.0679
     27 H3         -0.5231    1.5754    0.9043 H         1 <0>         0.0692
     28 H4         -1.7401    2.3994   -6.2337 H         1 <0>         0.0985
     29 H5         -1.6688    4.0890   -5.6784 H         1 <0>         0.0988
     30 H6         -0.2598    5.7113   -6.8130 H         1 <0>         0.1251
     31 H7          0.8233    6.3603   -8.9270 H         1 <0>         0.1214
     32 H8          1.2709    4.6622  -10.6530 H         1 <0>         0.1192
     33 H9          0.6362    2.3150  -10.2648 H         1 <0>         0.1214
     34 H10        -0.4394    1.6645   -8.1474 H         1 <0>         0.1250
     35 H11        -2.3402    1.5885    0.9072 H         1 <0>         0.0640
     36 H12        -3.8603    1.8768    0.0271 H         1 <0>         0.0810
     37 H13        -4.9243    0.0267   -1.2311 H         1 <0>         0.1426
     38 H14        -5.3759   -2.3936   -1.2460 H         1 <0>         0.1267
     39 H15        -1.9659   -3.0434    1.2353 H         1 <0>         0.1264
     40 H16        -1.5098   -0.6238    1.2403 H         1 <0>         0.1287
@<TRIPOS>BOND
     1    1   25 1
     2    1   26 1
     3    1   27 1
     4    1    2 1
     5    2    3 ar
     6    2    8 ar
     7    3    4 ar
     8    3   17 1
     9    4    6 ar
    10    4    5 1
    11    6    7 ar
    12    7    9 1
    13    7    8 ar
    14    9   10 1
    15   10   11 1
    16   10   28 1
    17   10   29 1
    18   11   16 ar
    19   11   12 ar
    20   12   13 ar
    21   12   30 1
    22   13   14 ar
    23   13   31 1
    24   14   15 ar
    25   14   32 1
    26   15   16 ar
    27   15   33 1
    28   16   34 1
    29   17   18 1
    30   17   35 1
    31   17   36 1
    32   18   23 ar
    33   18   19 ar
    34   19   20 ar
    35   19   37 1
    36   20   21 ar
    37   20   38 1
    38   21   22 ar
    39   21   24 1
    40   22   23 ar
    41   22   39 1
    42   23   40 1
@<TRIPOS>MOLECULE
ZINC13153689
   39    41     0     0     0
SMALL
USER_CHARGES
(1R,4S,5S,6S)-6-[[(1R)-1-phenylethyl]carbamoyl]bicyclo[2.2.1]hept-2-ene-5-carboxylic acid
@<TRIPOS>ATOM
      1 C1          0.1210   -0.5046   -1.4389 C.3       1 <0>        -0.1569
      2 C2          0.0021   -0.0041    0.0020 C.3       1 <0>         0.1828
      3 H1          0.8543   -0.3591    0.5815 H         1 <0>         0.0934
      4 C3         -1.2729   -0.5271    0.6119 C.ar      1 <0>        -0.0881
      5 C4         -2.4762    0.0958    0.3383 C.ar      1 <0>        -0.1096
      6 C5         -3.6463   -0.3866    0.8943 C.ar      1 <0>        -0.1138
      7 C6         -3.6119   -1.4864    1.7310 C.ar      1 <0>        -0.1229
      8 C7         -2.4078   -2.1062    2.0087 C.ar      1 <0>        -0.1204
      9 C8         -1.2383   -1.6264    1.4493 C.ar      1 <0>        -0.1103
     10 N1         -0.0178    1.4608    0.0101 N.am      1 <0>        -0.7280
     11 C9          1.1401    2.1505    0.0027 C.2       1 <0>         0.5338
     12 O1          2.1985    1.5584   -0.0106 O.2       1 <0>        -0.5454
     13 C10         1.1197    3.6573    0.0110 C.3       1 <0>        -0.1094
     14 H2          0.6017    4.0275    0.8958 H         1 <0>         0.1210
     15 C11         2.5728    4.2265   -0.0530 C.3       1 <0>        -0.0543
     16 H3          3.1379    4.2135    0.8789 H         1 <0>         0.0947
     17 C12         2.2972    5.6372   -0.6910 C.3       1 <0>        -0.1205
     18 C13         1.5933    5.0279   -1.9584 C.3       1 <0>        -0.0501
     19 H4          1.2948    5.7302   -2.7368 H         1 <0>         0.1020
     20 C14         0.4529    4.1997   -1.2769 C.3       1 <0>        -0.1131
     21 H5          0.1377    3.3783   -1.9203 H         1 <0>         0.0721
     22 C15        -0.7171    5.0857   -0.9349 C.2       1 <0>         0.4708
     23 O2         -1.0100    5.2804    0.2211 O.co2     1 <0>        -0.6352
     24 C16         2.6356    3.9753   -2.3551 C.2       1 <0>        -0.1935
     25 C17         3.2071    3.4969   -1.2435 C.2       1 <0>        -0.1331
     26 H6          1.0432   -0.1263   -1.8800 H         1 <0>         0.0656
     27 H7          0.1358   -1.5945   -1.4449 H         1 <0>         0.0627
     28 H8         -0.7313   -0.1496   -2.0183 H         1 <0>         0.0589
     29 H9         -2.5027    0.9574   -0.3124 H         1 <0>         0.1245
     30 H10        -4.5871    0.0974    0.6771 H         1 <0>         0.1243
     31 H11        -4.5257   -1.8617    2.1675 H         1 <0>         0.1204
     32 H12        -2.3809   -2.9654    2.6624 H         1 <0>         0.1211
     33 H13        -0.2976   -2.1106    1.6663 H         1 <0>         0.1224
     34 H14        -0.8643    1.9343    0.0167 H         1 <0>         0.4047
     35 H15         1.6205    6.2430   -0.0883 H         1 <0>         0.0794
     36 H16         3.2152    6.1706   -0.9374 H         1 <0>         0.0700
     37 H17         2.8678    3.6650   -3.3632 H         1 <0>         0.1174
     38 H18         3.9806    2.7455   -1.1844 H         1 <0>         0.1260
     39 O3         -1.4340    5.6587   -1.9145 O.co2     1 <0>        -0.7631
@<TRIPOS>BOND
     1    1    2 1
     2    1   26 1
     3    1   27 1
     4    1   28 1
     5    2    3 1
     6    2    4 1
     7    2   10 1
     8    4    9 ar
     9    4    5 ar
    10    5    6 ar
    11    5   29 1
    12    6    7 ar
    13    6   30 1
    14    7    8 ar
    15    7   31 1
    16    8    9 ar
    17    8   32 1
    18    9   33 1
    19   10   11 am
    20   10   34 1
    21   11   12 2
    22   11   13 1
    23   13   14 1
    24   13   20 1
    25   13   15 1
    26   15   16 1
    27   15   25 1
    28   15   17 1
    29   17   18 1
    30   17   35 1
    31   17   36 1
    32   18   19 1
    33   18   20 1
    34   18   24 1
    35   20   21 1
    36   20   22 1
    37   22   23 2
    38   22   39 1
    39   24   25 2
    40   24   37 1
    41   25   38 1
@<TRIPOS>MOLECULE
ZINC35135277
   43    44     0     0     0
SMALL
USER_CHARGES

@<TRIPOS>ATOM
      1 C1         -0.0989    1.4876    0.0042 C.3       1 <0>        -0.1235
      2 C2         -0.0207   -0.0174    0.0026 C.ar      1 <0>        -0.0759
      3 C3         -0.0025   -0.7074   -1.1953 C.ar      1 <0>        -0.1185
      4 C4          0.0692   -2.0877   -1.1967 C.ar      1 <0>        -0.1229
      5 C5          0.1234   -2.7783   -0.0002 C.ar      1 <0>        -0.1223
      6 C6          0.1061   -2.0885    1.1973 C.ar      1 <0>        -0.1113
      7 C7          0.0387   -0.7076    1.1987 C.ar      1 <0>        -0.0812
      8 C8          0.0252    0.0449    2.5043 C.3       1 <0>         0.1798
      9 H1         -0.5846    0.9424    2.4002 H         1 <0>         0.1003
     10 C9          1.4547    0.4404    2.8797 C.3       1 <0>        -0.1570
     11 N1         -0.5370   -0.8085    3.5540 N.am      1 <0>        -0.7385
     12 C10        -1.1898   -0.2547    4.5950 C.2       1 <0>         0.5334
     13 O1         -1.3116    0.9500    4.6629 O.2       1 <0>        -0.5093
     14 C11        -1.7681   -1.1326    5.6748 C.3       1 <0>        -0.0820
     15 H2         -0.9692   -1.7089    6.1413 H         1 <0>         0.0957
     16 C12        -2.7940   -2.0873    5.0609 C.3       1 <0>        -0.1097
     17 C13        -3.9155   -1.2784    4.4060 C.3       1 <0>        -0.1171
     18 C14        -4.5983   -0.4060    5.4613 C.3       1 <0>        -0.1197
     19 C15        -3.5724    0.5487    6.0752 C.3       1 <0>        -0.1058
     20 C16        -2.4509   -0.2602    6.7301 C.3       1 <0>        -0.1358
     21 H3         -2.8692   -0.8951    7.5111 H         1 <0>         0.0622
     22 C17        -1.4404    0.6802    7.3348 C.2       1 <0>         0.5107
     23 O2         -1.7941    1.7711    7.7486 O.co2     1 <0>        -0.6975
     24 O3         -0.2692    0.3501    7.4102 O.co2     1 <0>        -0.7079
     25 H4          0.9083    1.9038   -0.0156 H         1 <0>         0.0730
     26 H5         -0.6483    1.8237   -0.8752 H         1 <0>         0.0657
     27 H6         -0.6134    1.8237    0.9044 H         1 <0>         0.0747
     28 H7         -0.0448   -0.1679   -2.1299 H         1 <0>         0.1207
     29 H8          0.0827   -2.6267   -2.1325 H         1 <0>         0.1192
     30 H9          0.1787   -3.8569   -0.0013 H         1 <0>         0.1206
     31 H10         0.1481   -2.6280    2.1319 H         1 <0>         0.1203
     32 H11         1.4450    0.9847    3.8241 H         1 <0>         0.0717
     33 H12         2.0645   -0.4570    2.9839 H         1 <0>         0.0553
     34 H13         1.8731    1.0753    2.0988 H         1 <0>         0.0604
     35 H14        -0.4396   -1.7720    3.4997 H         1 <0>         0.3912
     36 H15        -2.3076   -2.7088    4.3091 H         1 <0>         0.0554
     37 H16        -3.2124   -2.7222    5.8419 H         1 <0>         0.0683
     38 H17        -3.4972   -0.6435    3.6250 H         1 <0>         0.0569
     39 H18        -4.6464   -1.9586    3.9686 H         1 <0>         0.0540
     40 H19        -5.3973    0.1703    4.9948 H         1 <0>         0.0513
     41 H20        -5.0166   -1.0410    6.2423 H         1 <0>         0.0528
     42 H21        -3.1541    1.1837    5.2942 H         1 <0>         0.0822
     43 H22        -4.0588    1.1702    6.8270 H         1 <0>         0.0599
@<TRIPOS>BOND
     1    1    2 1
     2    1   25 1
     3    1   26 1
     4    1   27 1
     5    2    7 ar
     6    2    3 ar
     7    3    4 ar
     8    3   28 1
     9    4    5 ar
    10    4   29 1
    11    5    6 ar
    12    5   30 1
    13    6    7 ar
    14    6   31 1
    15    7    8 1
    16    8    9 1
    17    8   10 1
    18    8   11 1
    19   10   32 1
    20   10   33 1
    21   10   34 1
    22   11   12 am
    23   11   35 1
    24   12   13 2
    25   12   14 1
    26   14   15 1
    27   14   20 1
    28   14   16 1
    29   16   17 1
    30   16   36 1
    31   16   37 1
    32   17   18 1
    33   17   38 1
    34   17   39 1
    35   18   19 1
    36   18   40 1
    37   18   41 1
    38   19   20 1
    39   19   42 1
    40   19   43 1
    41   20   21 1
    42   20   22 1
    43   22   23 2
    44   22   24 1
@<TRIPOS>MOLECULE
ZINC35148632
   42    42     0     0     0
SMALL
USER_CHARGES

@<TRIPOS>ATOM
      1 C1         -0.0187    1.5258    0.0104 C.3       1 <0>        -0.1571
      2 C2          0.0021   -0.0041    0.0020 C.3       1 <0>         0.1850
      3 H1          0.5123   -0.3556   -0.8948 H         1 <0>         0.0988
      4 C3         -1.4117   -0.5257    0.0127 C.ar      1 <0>        -0.1148
      5 C4         -2.0148   -0.8639    1.2095 C.ar      1 <0>        -0.0889
      6 C5         -3.3116   -1.3423    1.2197 C.ar      1 <0>        -0.1254
      7 C6         -4.0069   -1.4832    0.0329 C.ar      1 <0>        -0.0972
      8 C7         -3.4062   -1.1453   -1.1647 C.ar      1 <0>        -0.1513
      9 C8         -2.1089   -0.6609   -1.1756 C.ar      1 <0>         0.1065
     10 F1         -1.5222   -0.3259   -2.3455 F         1 <0>        -0.1337
     11 N1          0.7106   -0.4894    1.1889 N.am      1 <0>        -0.7411
     12 C9          2.0538   -0.5998    1.1737 C.2       1 <0>         0.5074
     13 O1          2.6758   -0.2974    0.1774 O.2       1 <0>        -0.4905
     14 C10         2.7826   -1.0990    2.3946 C.3       1 <0>        -0.1119
     15 C11         4.2865   -1.1286    2.1142 C.3       1 <0>        -0.1162
     16 C12         4.5672   -2.0624    0.9353 C.3       1 <0>        -0.1259
     17 C13         5.0264   -1.6354    3.3538 C.3       1 <0>        -0.0666
     18 C14         6.5303   -1.6649    3.0734 C.3       1 <0>        -0.1409
     19 C15         4.7457   -0.7015    4.5327 C.3       1 <0>        -0.1558
     20 C16         4.7622    0.2614    1.7785 C.2       1 <0>         0.5186
     21 O2          4.6313    1.1629    2.5888 O.co2     1 <0>        -0.7058
     22 O3          5.2781    0.4844    0.6965 O.co2     1 <0>        -0.6803
     23 H2          1.0039    1.9031    0.0027 H         1 <0>         0.0749
     24 H3         -0.5459    1.8868   -0.8726 H         1 <0>         0.0613
     25 H4         -0.5289    1.8773    0.9072 H         1 <0>         0.0570
     26 H5         -1.4725   -0.7546    2.1371 H         1 <0>         0.1319
     27 H6         -3.7819   -1.6066    2.1553 H         1 <0>         0.1303
     28 H7         -5.0198   -1.8578    0.0419 H         1 <0>         0.1315
     29 H8         -3.9494   -1.2558   -2.0916 H         1 <0>         0.1354
     30 H9          0.2131   -0.7312    1.9857 H         1 <0>         0.3916
     31 H10         2.5826   -0.4337    3.2345 H         1 <0>         0.0943
     32 H11         2.4385   -2.1044    2.6374 H         1 <0>         0.0721
     33 H12         4.0400   -1.7013    0.0522 H         1 <0>         0.0762
     34 H13         5.6386   -2.0835    0.7355 H         1 <0>         0.0495
     35 H14         4.2231   -3.0677    1.1781 H         1 <0>         0.0181
     36 H15         4.6823   -2.6407    3.5966 H         1 <0>         0.0459
     37 H16         6.8744   -0.6596    2.8306 H         1 <0>         0.0602
     38 H17         7.0574   -2.0260    3.9565 H         1 <0>         0.0396
     39 H18         6.7303   -2.3302    2.2335 H         1 <0>         0.0500
     40 H19         5.0898    0.3038    4.2899 H         1 <0>         0.0991
     41 H20         3.6743   -0.6805    4.7325 H         1 <0>         0.0407
     42 H21         5.2729   -1.0626    5.4158 H         1 <0>         0.0278
@<TRIPOS>BOND
     1    1    2 1
     2    1   23 1
     3    1   24 1
     4    1   25 1
     5    2    3 1
     6    2    4 1
     7    2   11 1
     8    4    9 ar
     9    4    5 ar
    10    5    6 ar
    11    5   26 1
    12    6    7 ar
    13    6   27 1
    14    7    8 ar
    15    7   28 1
    16    8    9 ar
    17    8   29 1
    18    9   10 1
    19   11   12 am
    20   11   30 1
    21   12   13 2
    22   12   14 1
    23   14   15 1
    24   14   31 1
    25   14   32 1
    26   15   16 1
    27   15   17 1
    28   15   20 1
    29   16   33 1
    30   16   34 1
    31   16   35 1
    32   17   18 1
    33   17   19 1
    34   17   36 1
    35   18   37 1
    36   18   38 1
    37   18   39 1
    38   19   40 1
    39   19   41 1
    40   19   42 1
    41   20   21 2
    42   20   22 1
@<TRIPOS>MOLECULE
ZINC43413068
   43    44     0     0     0
SMALL
USER_CHARGES

@<TRIPOS>ATOM
      1 C1          2.2539    4.2603    2.6227 C.3       1 <0>        -0.1281
      2 C2          3.1612    3.9497    3.7852 C.ar      1 <0>        -0.0247
      3 C3          4.3385    4.6503    3.9499 C.ar      1 <0>        -0.1351
      4 C4          5.1724    4.3665    5.0165 C.ar      1 <0>        -0.0968
      5 C5          4.8327    3.3793    5.9247 C.ar      1 <0>        -0.1363
      6 C6          3.6585    2.6717    5.7719 C.ar      1 <0>        -0.0814
      7 C7          2.8099    2.9568    4.7008 C.ar      1 <0>        -0.1318
      8 C8          1.5470    2.2064    4.5340 C.2       1 <0>         0.5521
      9 O1          0.8475    2.4027    3.5594 O.2       1 <0>        -0.5374
     10 N1          1.1713    1.3045    5.4624 N.am      1 <0>        -0.7106
     11 C9         -0.0214    0.4823    5.2445 C.3       1 <0>         0.1188
     12 C10        -0.1518   -0.5376    6.3775 C.3       1 <0>        -0.0401
     13 C11        -1.3230   -1.4776    6.0853 C.3       1 <0>        -0.1140
     14 C12        -2.6150   -0.6649    5.9795 C.3       1 <0>        -0.1208
     15 C13        -2.8661    0.0679    7.2989 C.3       1 <0>        -0.1162
     16 C14        -1.6948    1.0079    7.5911 C.3       1 <0>        -0.1193
     17 C15        -0.4028    0.1952    7.6969 C.3       1 <0>        -0.1124
     18 C16         1.1402   -1.3503    6.4833 C.3       1 <0>        -0.1770
     19 C17         1.3787   -2.0854    5.1895 C.2       1 <0>         0.4947
     20 O2          0.6188   -1.9269    4.2493 O.co2     1 <0>        -0.6815
     21 O3          2.3315   -2.8386    5.0830 O.co2     1 <0>        -0.7060
     22 H1          1.4639    4.9367    2.9490 H         1 <0>         0.0703
     23 H2          2.8309    4.7323    1.8275 H         1 <0>         0.0537
     24 H3          1.8107    3.3365    2.2508 H         1 <0>         0.1069
     25 H4          4.6096    5.4218    3.2444 H         1 <0>         0.1255
     26 H5          6.0929    4.9175    5.1407 H         1 <0>         0.1233
     27 H6          5.4885    3.1620    6.7549 H         1 <0>         0.1258
     28 H7          3.3945    1.9015    6.4814 H         1 <0>         0.1248
     29 H8          1.6907    1.1999    6.2749 H         1 <0>         0.3913
     30 H9         -0.9046    1.1208    5.2269 H         1 <0>         0.0545
     31 H10         0.0673   -0.0414    4.2926 H         1 <0>         0.1157
     32 H11        -1.1442   -1.9997    5.1453 H         1 <0>         0.1071
     33 H12        -1.4159   -2.2042    6.8924 H         1 <0>         0.0473
     34 H13        -2.5222    0.0617    5.1723 H         1 <0>         0.0625
     35 H14        -3.4495   -1.3346    5.7713 H         1 <0>         0.0543
     36 H15        -3.7866    0.6468    7.2235 H         1 <0>         0.0520
     37 H16        -2.9590   -0.6587    8.1061 H         1 <0>         0.0559
     38 H17        -1.6020    1.7344    6.7839 H         1 <0>         0.0633
     39 H18        -1.8737    1.5299    8.5311 H         1 <0>         0.0520
     40 H19        -0.4957   -0.5314    8.5041 H         1 <0>         0.0587
     41 H20         0.4316    0.8649    7.9051 H         1 <0>         0.0506
     42 H21         1.9765   -0.6793    6.6794 H         1 <0>         0.0508
     43 H22         1.0519   -2.0686    7.2984 H         1 <0>         0.0574
@<TRIPOS>BOND
     1    1    2 1
     2    1   22 1
     3    1   23 1
     4    1   24 1
     5    2    7 ar
     6    2    3 ar
     7    3    4 ar
     8    3   25 1
     9    4    5 ar
    10    4   26 1
    11    5    6 ar
    12    5   27 1
    13    6    7 ar
    14    6   28 1
    15    7    8 1
    16    8    9 2
    17    8   10 am
    18   10   11 1
    19   10   29 1
    20   11   12 1
    21   11   30 1
    22   11   31 1
    23   12   17 1
    24   12   13 1
    25   12   18 1
    26   13   14 1
    27   13   32 1
    28   13   33 1
    29   14   15 1
    30   14   34 1
    31   14   35 1
    32   15   16 1
    33   15   36 1
    34   15   37 1
    35   16   17 1
    36   16   38 1
    37   16   39 1
    38   17   40 1
    39   17   41 1
    40   18   19 1
    41   18   42 1
    42   18   43 1
    43   19   20 2
    44   19   21 1
@<TRIPOS>MOLECULE
ZINC51173415
   32    33     0     0     0
SMALL
USER_CHARGES

@<TRIPOS>ATOM
      1 C1         -0.0167    1.3799    0.0096 C.ar      1 <0>        -0.0961
      2 C2          1.1656    2.0891    0.0021 C.ar      1 <0>        -0.1197
      3 C3          2.3864    1.4061   -0.0131 C.ar      1 <0>        -0.0184
      4 C4          2.3968    0.0072   -0.0207 C.ar      1 <0>        -0.1241
      5 C5          1.2058   -0.6873   -0.0131 C.ar      1 <0>        -0.0938
      6 C6          0.0021   -0.0041    0.0020 C.ar      1 <0>        -0.1372
      7 C7         -1.2950   -0.7712    0.0102 C.3       1 <0>         0.1681
      8 N1         -1.7285   -1.0124   -1.3682 N.am      1 <0>        -0.7169
      9 C8         -2.8713   -1.6856   -1.6073 C.2       1 <0>         0.6035
     10 O1         -3.5433   -2.0932   -0.6779 O.2       1 <0>        -0.5242
     11 C9         -3.3047   -1.9267   -2.9854 C.2       1 <0>        -0.2427
     12 C10        -4.4367   -2.5845   -3.4433 C.2       1 <0>        -0.0643
     13 C11        -4.5759   -2.6538   -4.8081 C.2       1 <0>        -0.1681
     14 C12        -3.6250   -2.0908   -5.5973 C.2       1 <0>        -0.1705
     15 S1         -2.5185   -1.4444   -4.5110 S.3       1 <0>         0.2590
     16 Cl1        -3.5694   -2.0434   -7.3317 Cl        1 <0>         0.0223
     17 C13         3.6525    2.1550   -0.0217 C.2       1 <0>        -0.1266
     18 C14         4.8298    1.4916   -0.0364 C.2       1 <0>        -0.1541
     19 C15         6.0485    2.2124   -0.0447 C.2       1 <0>         0.4981
     20 O2          6.0357    3.4373   -0.0384 O.co2     1 <0>        -0.6930
     21 O3          7.1156    1.6111   -0.0580 O.co2     1 <0>        -0.6967
     22 H1         -0.9600    1.9057    0.0260 H         1 <0>         0.1212
     23 H2          1.1493    3.1690    0.0077 H         1 <0>         0.1268
     24 H3          3.3352   -0.5272   -0.0328 H         1 <0>         0.1293
     25 H4          1.2120   -1.7672   -0.0192 H         1 <0>         0.1216
     26 H5         -1.1499   -1.7250    0.5176 H         1 <0>         0.0792
     27 H6         -2.0559   -0.1929    0.5344 H         1 <0>         0.0791
     28 H7         -1.1929   -0.6876   -2.1089 H         1 <0>         0.4021
     29 H8         -5.1625   -3.0153   -2.7695 H         1 <0>         0.1580
     30 H9         -5.4292   -3.1493   -5.2472 H         1 <0>         0.1471
     31 H10         3.6412    3.2349   -0.0162 H         1 <0>         0.1299
     32 H11         4.8411    0.4117   -0.0420 H         1 <0>         0.1013
@<TRIPOS>BOND
     1    1    6 ar
     2    1    2 ar
     3    1   22 1
     4    2    3 ar
     5    2   23 1
     6    3    4 ar
     7    3   17 1
     8    4    5 ar
     9    4   24 1
    10    5    6 ar
    11    5   25 1
    12    6    7 1
    13    7    8 1
    14    7   26 1
    15    7   27 1
    16    8    9 am
    17    8   28 1
    18    9   10 2
    19    9   11 1
    20   11   15 1
    21   11   12 2
    22   12   13 1
    23   12   29 1
    24   13   14 2
    25   13   30 1
    26   14   15 1
    27   14   16 1
    28   17   18 2
    29   17   31 1
    30   18   19 1
    31   18   32 1
    32   19   20 2
    33   19   21 1
@<TRIPOS>MOLECULE
ZINC00711602
   42    45     0     0     0
SMALL
USER_CHARGES
4-nitro-2-[[2-(p-tolyl)benzooxazol-5-yl]iminomethyl]phenol
@<TRIPOS>ATOM
      1 C1          2.4523    3.9330   -0.0011 C.3       1 <0>        -0.1185
      2 C2          1.1547    3.1668    0.0076 C.ar      1 <0>        -0.0657
      3 C3          1.1718    1.7833    0.0004 C.ar      1 <0>        -0.1247
      4 C4         -0.0126    1.0758    0.0080 C.ar      1 <0>        -0.0795
      5 C5         -1.2298    1.7588    0.0174 C.ar      1 <0>        -0.0297
      6 C6         -1.2399    3.1545    0.0309 C.ar      1 <0>        -0.0607
      7 C7         -0.0484    3.8499    0.0224 C.ar      1 <0>        -0.1242
      8 C8         -2.5027    1.0072    0.0188 C.2       1 <0>         0.2819
      9 N1         -3.6936    1.5494    0.0325 N.2       1 <0>        -0.4650
     10 C9         -4.6240    0.5597    0.0254 C.ar      1 <0>         0.0422
     11 C10        -6.0189    0.5525    0.0317 C.ar      1 <0>        -0.0629
     12 C11        -6.6998   -0.6609    0.0284 C.ar      1 <0>         0.1139
     13 C12        -5.9864   -1.8665    0.0192 C.ar      1 <0>        -0.1318
     14 C13        -4.6102   -1.8602    0.0128 C.ar      1 <0>        -0.0762
     15 C14        -3.9194   -0.6563    0.0158 C.ar      1 <0>        -0.0131
     16 O1         -2.6060   -0.3351    0.0119 O.3       1 <0>        -0.2118
     17 N2         -8.0687   -0.6766    0.0346 N.2       1 <0>        -0.4569
     18 C15        -8.7149   -1.4780   -0.7650 C.2       1 <0>         0.2360
     19 C16       -10.1853   -1.4949   -0.7583 C.ar      1 <0>        -0.2307
     20 C17       -10.8829   -2.3531   -1.6144 C.ar      1 <0>         0.0348
     21 C18       -12.2608   -2.3635   -1.6027 C.ar      1 <0>        -0.1801
     22 C19       -12.9590   -1.5278   -0.7464 C.ar      1 <0>        -0.0127
     23 C20       -12.2827   -0.6751    0.1045 C.ar      1 <0>        -0.2372
     24 C21       -10.8970   -0.6543    0.1109 C.ar      1 <0>         0.3224
     25 N3        -12.9983   -3.2721   -2.5091 N.pl3     1 <0>         0.0678
     26 O2        -12.3873   -4.0082   -3.2629 O.2       1 <0>        -0.2247
     27 O3        -14.2162   -3.2835   -2.5012 O.3       1 <0>        -0.2224
     28 H1          2.7552    4.1230   -1.0309 H         1 <0>         0.0744
     29 H2          2.3177    4.8815    0.5188 H         1 <0>         0.0695
     30 H3          3.2227    3.3488    0.5022 H         1 <0>         0.0688
     31 H4          2.1143    1.2561   -0.0114 H         1 <0>         0.1305
     32 H5          0.0021   -0.0041    0.0020 H         1 <0>         0.1327
     33 H6         -2.1783    3.6888    0.0424 H         1 <0>         0.1413
     34 H7         -0.0548    4.9298    0.0276 H         1 <0>         0.1324
     35 H8         -6.5671    1.4830    0.0388 H         1 <0>         0.1417
     36 H9         -6.5193   -2.8059    0.0170 H         1 <0>         0.1397
     37 H10        -4.0669   -2.7935    0.0054 H         1 <0>         0.1341
     38 H11        -8.1703   -2.1296   -1.4323 H         1 <0>         0.0928
     39 H12       -10.3427   -3.0062   -2.2837 H         1 <0>         0.1307
     40 H13       -14.0389   -1.5433   -0.7437 H         1 <0>         0.1263
     41 H14       -12.8348   -0.0267    0.7687 H         1 <0>         0.1236
     42 O4        -10.2315    0.1786    0.9508 O.3       1 <0>        -0.6090
@<TRIPOS>BOND
     1    1    2 1
     2    1   28 1
     3    1   29 1
     4    1   30 1
     5    2    7 ar
     6    2    3 ar
     7    3    4 ar
     8    3   31 1
     9    4    5 ar
    10    4   32 1
    11    5    6 ar
    12    5    8 1
    13    6    7 ar
    14    6   33 1
    15    7   34 1
    16    8   16 1
    17    8    9 2
    18    9   10 1
    19   10   15 ar
    20   10   11 ar
    21   11   12 ar
    22   11   35 1
    23   12   13 ar
    24   12   17 1
    25   13   14 ar
    26   13   36 1
    27   14   15 ar
    28   14   37 1
    29   15   16 1
    30   17   18 2
    31   18   19 1
    32   18   38 1
    33   19   24 ar
    34   19   20 ar
    35   20   21 ar
    36   20   39 1
    37   21   22 ar
    38   21   25 1
    39   22   23 ar
    40   22   40 1
    41   23   24 ar
    42   23   41 1
    43   24   42 1
    44   25   26 2
    45   25   27 1
@<TRIPOS>MOLECULE
ZINC11804220
   44    46     0     0     0
SMALL
USER_CHARGES
(2S)-3-[4-(3,4-dimethylphenoxy)phenyl]-2-(2-thienyl)propanoic acid
@<TRIPOS>ATOM
      1 C1          8.2485   12.3101   -0.6371 C.3       1 <0>        -0.1155
      2 C2          6.9133   11.9131   -0.0620 C.ar      1 <0>        -0.0927
      3 C3          6.7453   11.8438    1.3089 C.ar      1 <0>        -0.1061
      4 C4          5.5214   11.4848    1.8387 C.ar      1 <0>        -0.1305
      5 C5          4.4623   11.1841    0.9938 C.ar      1 <0>         0.0943
      6 C6          4.6333   11.2549   -0.3812 C.ar      1 <0>        -0.1196
      7 C7          5.8584   11.6191   -0.9058 C.ar      1 <0>        -0.0733
      8 C8          6.0451   11.6957   -2.3993 C.3       1 <0>        -0.1183
      9 O1          3.2582   10.8266    1.5123 O.3       1 <0>        -0.2690
     10 C9          3.0276    9.5066    1.7383 C.ar      1 <0>         0.1105
     11 C10         1.8084    9.0928    2.2558 C.ar      1 <0>        -0.1638
     12 C11         1.5767    7.7504    2.4850 C.ar      1 <0>        -0.0847
     13 C12         2.5581    6.8194    2.1986 C.ar      1 <0>        -0.0963
     14 C13         3.7757    7.2297    1.6878 C.ar      1 <0>         0.0119
     15 C14         4.0109    8.5704    1.4522 C.ar      1 <0>        -0.1973
     16 C15         2.3025    5.3556    2.4497 C.3       1 <0>        -0.0485
     17 C16         1.6944    4.7219    1.1968 C.3       1 <0>        -0.0595
     18 H1          0.8015    5.2755    0.9064 H         1 <0>         0.0915
     19 C17         1.3255    3.2898    1.4868 C.2       1 <0>        -0.0646
     20 C18         0.1105    2.6921    1.4251 C.2       1 <0>        -0.2015
     21 C19         0.0081    1.3485    1.7330 C.2       1 <0>        -0.1457
     22 C20         1.1239    0.6708    2.0977 C.2       1 <0>        -0.2195
     23 S1          2.3754    1.9402    2.0001 S.3       1 <0>         0.0620
     24 C21         2.6990    4.7644    0.0743 C.2       1 <0>         0.4664
     25 O2          3.0767    3.7372   -0.4377 O.co2     1 <0>        -0.6247
     26 H2          8.2834   13.3925   -0.7607 H         1 <0>         0.0693
     27 H3          9.0434   11.9958    0.0393 H         1 <0>         0.0652
     28 H4          8.3843   11.8292   -1.6058 H         1 <0>         0.0711
     29 H5          7.5708   12.0746    1.9660 H         1 <0>         0.1266
     30 H6          5.3895   11.4348    2.9094 H         1 <0>         0.1285
     31 H7          3.8095   11.0257   -1.0408 H         1 <0>         0.1307
     32 H8          5.8030   12.7007   -2.7447 H         1 <0>         0.0707
     33 H9          7.0811   11.4656   -2.6482 H         1 <0>         0.0720
     34 H10         5.3862   10.9760   -2.8852 H         1 <0>         0.0699
     35 H11         1.0413    9.8195    2.4789 H         1 <0>         0.1205
     36 H12         0.6280    7.4278    2.8878 H         1 <0>         0.1203
     37 H13         4.5422    6.5009    1.4692 H         1 <0>         0.1211
     38 H14         4.9606    8.8899    1.0493 H         1 <0>         0.1167
     39 H15         1.6107    5.2456    3.2848 H         1 <0>         0.0647
     40 H16         3.2425    4.8584    2.6887 H         1 <0>         0.0655
     41 H17        -0.7639    3.2564    1.1361 H         1 <0>         0.1236
     42 H18        -0.9472    0.8468    1.6863 H         1 <0>         0.1213
     43 H19         1.2293   -0.3686    2.3717 H         1 <0>         0.1751
     44 O3          3.1743    5.9434   -0.3567 O.co2     1 <0>        -0.7385
@<TRIPOS>BOND
     1    1    2 1
     2    1   26 1
     3    1   27 1
     4    1   28 1
     5    2    7 ar
     6    2    3 ar
     7    3    4 ar
     8    3   29 1
     9    4    5 ar
    10    4   30 1
    11    5    6 ar
    12    5    9 1
    13    6    7 ar
    14    6   31 1
    15    7    8 1
    16    8   32 1
    17    8   33 1
    18    8   34 1
    19    9   10 1
    20   10   15 ar
    21   10   11 ar
    22   11   12 ar
    23   11   35 1
    24   12   13 ar
    25   12   36 1
    26   13   14 ar
    27   13   16 1
    28   14   15 ar
    29   14   37 1
    30   15   38 1
    31   16   17 1
    32   16   39 1
    33   16   40 1
    34   17   18 1
    35   17   19 1
    36   17   24 1
    37   19   23 1
    38   19   20 2
    39   20   21 1
    40   20   41 1
    41   21   22 2
    42   21   42 1
    43   22   23 1
    44   22   43 1
    45   24   25 2
    46   24   44 1
@<TRIPOS>MOLECULE
ZINC16934151
   43    46     0     0     0
SMALL
USER_CHARGES
2-[[(5Z)-3-methyl-5-(1-naphthylmethylene)-4-oxo-thiazolidin-2-ylidene]amino]benzoic acid
@<TRIPOS>ATOM
      1 C1         -4.4049   -3.5023   -0.5629 C.3       1 <0>         0.0724
      2 N1         -3.2976   -2.5551   -0.7143 N.am      1 <0>        -0.5369
      3 C2         -3.5553   -1.2802   -0.9526 C.2       1 <0>         0.5574
      4 O1         -4.6967   -0.8689   -1.0497 O.2       1 <0>        -0.5004
      5 C3         -2.3955   -0.3790   -1.0950 C.2       1 <0>        -0.1916
      6 C4         -2.3666    0.9579   -1.3398 C.2       1 <0>         0.0346
      7 C5         -1.1072    1.6970   -1.2224 C.ar      1 <0>        -0.0705
      8 C6         -0.0344    1.1667   -0.5088 C.ar      1 <0>        -0.0819
      9 C7          1.1579    1.8672   -0.4054 C.ar      1 <0>        -0.1138
     10 C8          1.3270    3.0888   -0.9838 C.ar      1 <0>        -0.0889
     11 C9          0.2866    3.6878   -1.7139 C.ar      1 <0>        -0.0558
     12 C10        -0.9501    3.0109   -1.8478 C.ar      1 <0>        -0.0267
     13 C11        -1.9887    3.6042   -2.5731 C.ar      1 <0>        -0.1098
     14 C12        -1.7988    4.8282   -3.1438 C.ar      1 <0>        -0.1095
     15 C13        -0.5841    5.4968   -3.0148 C.ar      1 <0>        -0.1201
     16 C14         0.4475    4.9481   -2.3153 C.ar      1 <0>        -0.1012
     17 S1         -1.0390   -1.5198   -0.8668 S.3       1 <0>        -0.0406
     18 C15        -2.0006   -3.0016   -0.6074 C.2       1 <0>         0.3620
     19 N2         -1.5724   -4.2255   -0.3751 N.2       1 <0>        -0.3741
     20 C16        -0.2400   -4.4660   -0.2405 C.ar      1 <0>         0.1079
     21 C17         0.5289   -3.7004    0.6417 C.ar      1 <0>        -0.1561
     22 C18         1.8755   -3.9526    0.7775 C.ar      1 <0>        -0.1066
     23 C19         2.4834   -4.9561    0.0361 C.ar      1 <0>        -0.1379
     24 C20         1.7486   -5.7196   -0.8431 C.ar      1 <0>        -0.0668
     25 C21         0.3786   -5.4868   -0.9947 C.ar      1 <0>        -0.0919
     26 C22        -0.4118   -6.2983   -1.9323 C.2       1 <0>         0.4854
     27 O2         -1.6027   -6.0915   -2.0605 O.co2     1 <0>        -0.6058
     28 H1         -5.3521   -2.9752   -0.6777 H         1 <0>         0.0926
     29 H2         -4.3262   -4.2780   -1.3246 H         1 <0>         0.0886
     30 H3         -4.3604   -3.9583    0.4261 H         1 <0>         0.0770
     31 H4         -3.2721    1.4752   -1.6208 H         1 <0>         0.1559
     32 H5         -0.1308    0.2005   -0.0361 H         1 <0>         0.1416
     33 H6          1.9757    1.4318    0.1497 H         1 <0>         0.1299
     34 H7          2.2713    3.6025   -0.8802 H         1 <0>         0.1292
     35 H8         -2.9357    3.0961   -2.6802 H         1 <0>         0.1301
     36 H9         -2.6014    5.2850   -3.7038 H         1 <0>         0.1251
     37 H10        -0.4583    6.4652   -3.4761 H         1 <0>         0.1234
     38 H11         1.3840    5.4780   -2.2235 H         1 <0>         0.1283
     39 H12         0.0656   -2.9142    1.2193 H         1 <0>         0.1222
     40 H13         2.4645   -3.3615    1.4631 H         1 <0>         0.1210
     41 H14         3.5417   -5.1394    0.1495 H         1 <0>         0.1211
     42 H15         2.2306   -6.4984   -1.4154 H         1 <0>         0.1380
     43 O3          0.1845   -7.2716   -2.6497 O.co2     1 <0>        -0.7567
@<TRIPOS>BOND
     1    1    2 1
     2    1   28 1
     3    1   29 1
     4    1   30 1
     5    2   18 1
     6    2    3 am
     7    3    4 2
     8    3    5 1
     9    5    6 2
    10    5   17 1
    11    6    7 1
    12    6   31 1
    13    7   12 ar
    14    7    8 ar
    15    8    9 ar
    16    8   32 1
    17    9   10 ar
    18    9   33 1
    19   10   11 ar
    20   10   34 1
    21   11   16 ar
    22   11   12 ar
    23   12   13 ar
    24   13   14 ar
    25   13   35 1
    26   14   15 ar
    27   14   36 1
    28   15   16 ar
    29   15   37 1
    30   16   38 1
    31   17   18 1
    32   18   19 2
    33   19   20 1
    34   20   25 ar
    35   20   21 ar
    36   21   22 ar
    37   21   39 1
    38   22   23 ar
    39   22   40 1
    40   23   24 ar
    41   23   41 1
    42   24   25 ar
    43   24   42 1
    44   25   26 1
    45   26   27 2
    46   26   43 1
@<TRIPOS>MOLECULE
ZINC38627172
   52    54     0     0     0
SMALL
USER_CHARGES

@<TRIPOS>ATOM
      1 C1         -0.8500    1.3574   -1.9554 C.3       1 <0>        -0.1524
      2 C2         -0.7123   -0.1407   -1.6766 C.3       1 <0>        -0.1250
      3 C3         -2.0959   -0.7407   -1.4184 C.3       1 <0>        -0.1190
      4 C4         -1.9582   -2.2387   -1.1396 C.3       1 <0>        -0.1136
      5 C5         -3.3418   -2.8387   -0.8815 C.3       1 <0>        -0.1282
      6 C6         -3.2041   -4.3368   -0.6027 C.3       1 <0>         0.1064
      7 N1         -4.5289   -4.9113   -0.3555 N.am      1 <0>        -0.5245
      8 C7         -5.0156   -4.9420    0.9078 C.2       1 <0>         0.5250
      9 C8         -6.2741   -5.4810    1.1865 C.2       1 <0>        -0.4076
     10 C9         -7.0616   -6.0053    0.1478 C.2       1 <0>         0.1406
     11 C10        -6.5657   -5.9758   -1.1516 C.2       1 <0>        -0.3116
     12 C11        -5.2437   -5.3945   -1.3891 C.2       1 <0>         0.5706
     13 O1         -4.7892   -5.3521   -2.5186 O.2       1 <0>        -0.5630
     14 C12        -7.3371   -6.5005   -2.2380 C.1       1 <0>         0.3151
     15 N2         -7.9490   -6.9167   -3.0999 N.1       1 <0>        -0.4949
     16 C13        -8.4201   -6.5901    0.4364 C.3       1 <0>        -0.1300
     17 C14        -6.7750   -5.5000    2.5690 C.2       1 <0>         0.4954
     18 O2         -6.2235   -6.1897    3.4067 O.2       1 <0>        -0.4545
     19 C15        -7.9452   -4.6835    2.9404 C.ar      1 <0>        -0.1333
     20 C16        -8.5112   -3.7996    2.0300 C.ar      1 <0>        -0.0556
     21 C17        -9.6128   -3.0323    2.3824 C.ar      1 <0>        -0.1277
     22 C18       -10.1777   -3.1118    3.6186 C.ar      1 <0>        -0.0879
     23 C19        -9.6574   -3.9838    4.5895 C.ar      1 <0>        -0.0637
     24 C20        -8.5379   -4.7914    4.2717 C.ar      1 <0>        -0.0195
     25 C21        -8.0204   -5.6664    5.2344 C.ar      1 <0>        -0.1069
     26 C22        -8.6038   -5.7359    6.4645 C.ar      1 <0>        -0.1234
     27 C23        -9.7088   -4.9480    6.7780 C.ar      1 <0>        -0.1205
     28 C24       -10.2290   -4.0765    5.8703 C.ar      1 <0>        -0.1123
     29 O3         -4.2725   -4.4442    1.9143 O.3       1 <0>        -0.6396
     30 H1          0.1357    1.7848   -2.1393 H         1 <0>         0.0502
     31 H2         -1.4803    1.5074   -2.8319 H         1 <0>         0.0524
     32 H3         -1.3034    1.8472   -1.0936 H         1 <0>         0.0527
     33 H4         -0.2589   -0.6305   -2.5383 H         1 <0>         0.0597
     34 H5         -0.0819   -0.2907   -0.8001 H         1 <0>         0.0602
     35 H6         -2.5493   -0.2509   -0.5567 H         1 <0>         0.0611
     36 H7         -2.7263   -0.5906   -2.2949 H         1 <0>         0.0603
     37 H8         -1.5048   -2.7285   -2.0014 H         1 <0>         0.0616
     38 H9         -1.3279   -2.3888   -0.2631 H         1 <0>         0.0631
     39 H10        -3.7952   -2.3489   -0.0197 H         1 <0>         0.0679
     40 H11        -3.9722   -2.6887   -1.7580 H         1 <0>         0.0635
     41 H12        -2.7507   -4.8266   -1.4644 H         1 <0>         0.0841
     42 H13        -2.5738   -4.4868    0.2738 H         1 <0>         0.0909
     43 H14        -9.1814   -5.8202    0.3105 H         1 <0>         0.0829
     44 H15        -8.6163   -7.4112   -0.2531 H         1 <0>         0.0712
     45 H16        -8.4455   -6.9620    1.4607 H         1 <0>         0.0694
     46 H17        -8.0901   -3.7085    1.0397 H         1 <0>         0.1365
     47 H18       -10.0333   -2.3529    1.6558 H         1 <0>         0.1254
     48 H19       -11.0342   -2.4980    3.8554 H         1 <0>         0.1246
     49 H20        -7.1642   -6.2829    5.0036 H         1 <0>         0.1612
     50 H21        -8.2038   -6.4115    7.2061 H         1 <0>         0.1209
     51 H22       -10.1530   -5.0215    7.7597 H         1 <0>         0.1183
     52 H23       -11.0857   -3.4713    6.1277 H         1 <0>         0.1234
@<TRIPOS>BOND
     1    1    2 1
     2    1   30 1
     3    1   31 1
     4    1   32 1
     5    2    3 1
     6    2   33 1
     7    2   34 1
     8    3    4 1
     9    3   35 1
    10    3   36 1
    11    4    5 1
    12    4   37 1
    13    4   38 1
    14    5    6 1
    15    5   39 1
    16    5   40 1
    17    6    7 1
    18    6   41 1
    19    6   42 1
    20    7   12 am
    21    7    8 1
    22    8    9 2
    23    8   29 1
    24    9   10 1
    25    9   17 1
    26   10   11 2
    27   10   16 1
    28   11   12 1
    29   11   14 1
    30   12   13 2
    31   14   15 3
    32   16   43 1
    33   16   44 1
    34   16   45 1
    35   17   18 2
    36   17   19 1
    37   19   24 ar
    38   19   20 ar
    39   20   21 ar
    40   20   46 1
    41   21   22 ar
    42   21   47 1
    43   22   23 ar
    44   22   48 1
    45   23   28 ar
    46   23   24 ar
    47   24   25 ar
    48   25   26 ar
    49   25   49 1
    50   26   27 ar
    51   26   50 1
    52   27   28 ar
    53   27   51 1
    54   28   52 1
@<TRIPOS>MOLECULE
ZINC41627588
   43    45     0     0     0
SMALL
USER_CHARGES

@<TRIPOS>ATOM
      1 C1         -0.0187    1.5258    0.0104 C.3       1 <0>        -0.1527
      2 C2          0.0021   -0.0041    0.0020 C.3       1 <0>        -0.1165
      3 C3          0.7421   -0.5109    1.2415 C.3       1 <0>        -0.0739
      4 C4          0.7625   -2.0177    1.2333 C.2       1 <0>         0.1949
      5 C5          1.8414   -2.6816    0.7246 C.2       1 <0>        -0.2916
      6 C6          1.8382   -4.0875    0.7279 C.2       1 <0>         0.5301
      7 O1          2.7862   -4.7124    0.2814 O.2       1 <0>        -0.5313
      8 N1          0.7661   -4.7330    1.2350 N.am      1 <0>        -0.6136
      9 H1          0.7428   -5.7026    1.2476 H         1 <0>         0.4219
     10 C7         -0.2821   -4.0176    1.7291 C.2       1 <0>         0.3611
     11 N2         -0.2686   -2.6985    1.7267 N.2       1 <0>        -0.5419
     12 S1         -1.6772   -4.8684    2.3884 S.3       1 <0>         0.0778
     13 C8         -2.7937   -3.5389    2.9142 C.3       1 <0>        -0.0997
     14 H2         -2.2675   -2.8709    3.5961 H         1 <0>         0.1377
     15 C9         -3.2618   -2.7514    1.6887 C.3       1 <0>        -0.1500
     16 C10        -3.9878   -4.1336    3.6153 C.2       1 <0>         0.5315
     17 O2         -4.2739   -5.2993    3.4425 O.2       1 <0>        -0.4458
     18 N3         -4.7378   -3.3699    4.4343 N.am      1 <0>        -0.6097
     19 C11        -5.8355   -3.9166    5.0788 C.2       1 <0>         0.3671
     20 N4         -6.2953   -5.1448    5.0236 N.2       1 <0>        -0.5024
     21 C12        -7.3866   -5.5431    5.7122 C.ar      1 <0>         0.0987
     22 C13        -7.9816   -6.8258    5.7400 C.ar      1 <0>        -0.0627
     23 C14        -9.0978   -7.0635    6.4984 C.ar      1 <0>        -0.1058
     24 C15        -9.6820   -6.0633    7.2622 C.ar      1 <0>        -0.0973
     25 C16        -9.1265   -4.7971    7.2591 C.ar      1 <0>        -0.0629
     26 C17        -8.0086   -4.5495    6.5021 C.ar      1 <0>        -0.1470
     27 S2         -6.9813   -3.1310    6.2033 S.3       1 <0>         0.0132
     28 H3          1.0039    1.9031    0.0027 H         1 <0>         0.0569
     29 H4         -0.5459    1.8868   -0.8726 H         1 <0>         0.0582
     30 H5         -0.5289    1.8773    0.9072 H         1 <0>         0.0568
     31 H6         -1.0205   -0.3814    0.0098 H         1 <0>         0.0670
     32 H7          0.5123   -0.3556   -0.8948 H         1 <0>         0.0651
     33 H8          1.7647   -0.1336    1.2338 H         1 <0>         0.0881
     34 H9          0.2319   -0.1594    2.1383 H         1 <0>         0.0887
     35 H10         2.6836   -2.1357    0.3258 H         1 <0>         0.1576
     36 H11        -3.9327   -1.9526    2.0047 H         1 <0>         0.0778
     37 H12        -2.3981   -2.3213    1.1816 H         1 <0>         0.0978
     38 H13        -3.7880   -3.4194    1.0068 H         1 <0>         0.0757
     39 H14        -4.5089   -2.4375    4.5725 H         1 <0>         0.4331
     40 H15        -7.5517   -7.6267    5.1567 H         1 <0>         0.1353
     41 H16        -9.5330   -8.0520    6.5014 H         1 <0>         0.1365
     42 H17       -10.5619   -6.2715    7.8528 H         1 <0>         0.1408
     43 H18        -9.5693   -4.0079    7.8487 H         1 <0>         0.1353
@<TRIPOS>BOND
     1    1    2 1
     2    1   28 1
     3    1   29 1
     4    1   30 1
     5    2    3 1
     6    2   31 1
     7    2   32 1
     8    3    4 1
     9    3   33 1
    10    3   34 1
    11    4   11 1
    12    4    5 2
    13    5    6 1
    14    5   35 1
    15    6    7 2
    16    6    8 am
    17    8    9 1
    18    8   10 1
    19   10   11 2
    20   10   12 1
    21   12   13 1
    22   13   14 1
    23   13   15 1
    24   13   16 1
    25   15   36 1
    26   15   37 1
    27   15   38 1
    28   16   17 2
    29   16   18 am
    30   18   19 1
    31   18   39 1
    32   19   27 1
    33   19   20 2
    34   20   21 1
    35   21   26 ar
    36   21   22 ar
    37   22   23 ar
    38   22   40 1
    39   23   24 ar
    40   23   41 1
    41   24   25 ar
    42   24   42 1
    43   25   26 ar
    44   25   43 1
    45   26   27 1
@<TRIPOS>MOLECULE
ZINC13434520
   30    32     0     0     0
SMALL
USER_CHARGES
(2R)-4-(5-bromothiophene-2-carbonyl)-2,3-dihydro-1,4-benzoxazine-2-carboxylic acid
@<TRIPOS>ATOM
      1 C1         -1.2344    3.1931   -0.3416 C.ar      1 <0>        -0.1437
      2 C2         -1.2440    1.8119   -0.2762 C.ar      1 <0>        -0.1027
      3 C3         -0.0657    1.1146   -0.0878 C.ar      1 <0>        -0.1351
      4 C4          1.1355    1.7985    0.0264 C.ar      1 <0>         0.1087
      5 C5          1.1430    3.1891   -0.0432 C.ar      1 <0>         0.0687
      6 C6         -0.0420    3.8836   -0.2284 C.ar      1 <0>        -0.1127
      7 N1          2.3565    3.8863    0.0771 N.am      1 <0>        -0.5456
      8 C7          3.6047    3.1125   -0.0368 C.3       1 <0>         0.0877
      9 C8          3.4126    1.8048    0.7444 C.3       1 <0>         0.0397
     10 H1          3.2293    2.0303    1.7949 H         1 <0>         0.0827
     11 O1          2.2907    1.1044    0.2018 O.3       1 <0>        -0.2798
     12 C9          4.6489    0.9522    0.6192 C.2       1 <0>         0.4780
     13 O2          4.5973   -0.1050    0.0364 O.co2     1 <0>        -0.5992
     14 C10         2.3780    5.2172    0.2890 C.2       1 <0>         0.6085
     15 O3          1.3337    5.8329    0.3994 O.2       1 <0>        -0.5089
     16 C11         3.6579    5.9226    0.3865 C.2       1 <0>        -0.2428
     17 C12         3.9059    7.2363    0.7544 C.2       1 <0>        -0.0675
     18 C13         5.2151    7.6468    0.7624 C.2       1 <0>        -0.1397
     19 C14         6.1897    6.7633    0.4158 C.2       1 <0>        -0.2153
     20 S1          5.3046    5.3132    0.0704 S.3       1 <0>         0.2655
     21 Br1         8.0578    7.0461    0.3373 Br        1 <0>         0.0379
     22 H2         -2.1588    3.7328   -0.4856 H         1 <0>         0.1242
     23 H3         -2.1770    1.2758   -0.3685 H         1 <0>         0.1261
     24 H4         -0.0797    0.0360   -0.0340 H         1 <0>         0.1352
     25 H5         -0.0339    4.9621   -0.2846 H         1 <0>         0.1657
     26 H6          4.4319    3.6800    0.3896 H         1 <0>         0.1051
     27 H7          3.8094    2.8910   -1.0842 H         1 <0>         0.0989
     28 H8          3.1033    7.9074    1.0227 H         1 <0>         0.1540
     29 H9          5.4689    8.6590    1.0407 H         1 <0>         0.1436
     30 O4          5.8075    1.3672    1.1551 O.co2     1 <0>        -0.7372
@<TRIPOS>BOND
     1    1    6 ar
     2    1    2 ar
     3    1   22 1
     4    2    3 ar
     5    2   23 1
     6    3    4 ar
     7    3   24 1
     8    4   11 1
     9    4    5 ar
    10    5    6 ar
    11    5    7 1
    12    6   25 1
    13    7    8 1
    14    7   14 am
    15    8    9 1
    16    8   26 1
    17    8   27 1
    18    9   10 1
    19    9   11 1
    20    9   12 1
    21   12   13 2
    22   12   30 1
    23   14   15 2
    24   14   16 1
    25   16   20 1
    26   16   17 2
    27   17   18 1
    28   17   28 1
    29   18   19 2
    30   18   29 1
    31   19   20 1
    32   19   21 1
@<TRIPOS>MOLECULE
ZINC02792711
   38    41     0     0     0
SMALL
USER_CHARGES
3-[(1S,2R)-2-(4-chlorophenyl)cyclopropyl]-4-(1,3-dimethylpyrazol-4-yl)-1H-1,2,4-triazole-5-thione
@<TRIPOS>ATOM
      1 C1         -1.5916    4.4104    0.0417 C.3       1 <0>        -0.0706
      2 C2         -0.6951    3.1992    0.0259 C.2       1 <0>         0.0983
      3 C3         -1.1192    1.8621    0.0168 C.2       1 <0>         0.0057
      4 C4         -0.0126    1.0758    0.0080 C.2       1 <0>         0.0817
      5 N1          1.0680    1.8886    0.0020 N.pl3     1 <0>        -0.3733
      6 N2          0.6131    3.2132    0.0135 N.2       1 <0>        -0.2935
      7 C5          2.4685    1.4592   -0.0137 C.3       1 <0>         0.1045
      8 N3         -2.4549    1.4150    0.0192 N.pl3     1 <0>        -0.4302
      9 C6         -3.2135    1.1536    1.1344 C.2       1 <0>         0.1784
     10 N4         -4.3890    0.7635    0.7576 N.2       1 <0>        -0.3263
     11 N5         -4.4202    0.7631   -0.6437 N.2       1 <0>        -0.3846
     12 C7         -3.2092    1.1762   -1.0723 C.2       1 <0>         0.3978
     13 S1         -2.7196    1.3600   -2.7025 S.3       1 <0>        -0.7805
     14 C8         -2.7531    1.2980    2.5621 C.3       1 <0>        -0.0934
     15 H1         -1.9997    2.0524    2.2916 H         1 <0>         0.1332
     16 C9         -3.8070    1.1555    3.6620 C.3       1 <0>        -0.1237
     17 C10        -2.7754    0.0462    3.4416 C.3       1 <0>        -0.0666
     18 H2         -2.0452   -0.4822    4.0722 H         1 <0>         0.1408
     19 C11        -3.2561   -1.2367    2.8139 C.ar      1 <0>        -0.0848
     20 C12        -4.5384   -1.3184    2.3040 C.ar      1 <0>        -0.0590
     21 C13        -4.9779   -2.4931    1.7231 C.ar      1 <0>        -0.1068
     22 C14        -4.1380   -3.5908    1.6622 C.ar      1 <0>        -0.0337
     23 C15        -2.8567   -3.5102    2.1778 C.ar      1 <0>        -0.1230
     24 C16        -2.4164   -2.3333    2.7533 C.ar      1 <0>        -0.1080
     25 Cl1        -4.6919   -5.0689    0.9397 Cl        1 <0>        -0.0842
     26 H3         -2.6433    4.0880    0.0498 H         1 <0>         0.0734
     27 H4         -1.4015    5.0190   -0.8547 H         1 <0>         0.0794
     28 H5         -1.3844    5.0082    0.9415 H         1 <0>         0.0731
     29 H6          0.0021   -0.0041    0.0020 H         1 <0>         0.1718
     30 H7          3.1231    2.3433   -0.0152 H         1 <0>         0.0948
     31 H8          2.6584    0.8608   -0.9169 H         1 <0>         0.0793
     32 H9          2.6756    0.8512    0.8793 H         1 <0>         0.0778
     33 H10        -3.7025    1.9829    4.3793 H         1 <0>         0.1063
     34 H11        -4.8111    1.1836    3.2136 H         1 <0>         0.1164
     35 H12        -5.1954   -0.4628    2.3556 H         1 <0>         0.1499
     36 H13        -5.9783   -2.5554    1.3208 H         1 <0>         0.1285
     37 H14        -2.2008   -4.3669    2.1308 H         1 <0>         0.1261
     38 H15        -1.4161   -2.2701    3.1555 H         1 <0>         0.1248
@<TRIPOS>BOND
     1    1    2 1
     2    1   26 1
     3    1   27 1
     4    1   28 1
     5    2    6 2
     6    2    3 1
     7    3    4 2
     8    3    8 1
     9    4    5 1
    10    4   29 1
    11    5    6 1
    12    5    7 1
    13    7   30 1
    14    7   31 1
    15    7   32 1
    16    8   12 1
    17    8    9 1
    18    9   10 2
    19    9   14 1
    20   10   11 1
    21   11   12 2
    22   12   13 1
    23   14   15 1
    24   14   17 1
    25   14   16 1
    26   16   17 1
    27   16   33 1
    28   16   34 1
    29   17   18 1
    30   17   19 1
    31   19   24 ar
    32   19   20 ar
    33   20   21 ar
    34   20   35 1
    35   21   22 ar
    36   21   36 1
    37   22   23 ar
    38   22   25 1
    39   23   24 ar
    40   23   37 1
    41   24   38 1
@<TRIPOS>MOLECULE
ZINC44244146
   25    26     0     0     0
SMALL
USER_CHARGES

@<TRIPOS>ATOM
      1 C1         -0.0167    1.3780    0.0096 C.ar      1 <0>        -0.0603
      2 C2          1.1689    2.0878    0.0021 C.ar      1 <0>        -0.1690
      3 C3          2.3819    1.4127   -0.0131 C.ar      1 <0>         0.2802
      4 C4          2.4005    0.0224   -0.0206 C.ar      1 <0>        -0.0999
      5 C5          1.2094   -0.6831   -0.0131 C.ar      1 <0>         0.1178
      6 C6          0.0021   -0.0041    0.0020 C.ar      1 <0>        -0.2348
      7 F1          1.2245   -2.0340   -0.0204 F         1 <0>        -0.1444
      8 F2          3.5787   -0.6386   -0.0358 F         1 <0>        -0.1336
      9 N1          3.5826    2.1295   -0.0211 N.2       1 <0>        -1.0828
     10 S1          5.0286    1.3226   -0.0392 S.o2      1 <0>         2.6195
     11 O1          5.1269    0.6374    1.2018 O.2       1 <0>        -1.0131
     12 O2          5.1027    0.6499   -1.2887 O.2       1 <0>        -1.0141
     13 C7          6.3038    2.5385   -0.0455 C.ar      1 <0>        -0.6731
     14 C8          6.7962    3.0331   -1.2436 C.ar      1 <0>         0.0508
     15 C9          7.8001    3.9893   -1.2002 C.ar      1 <0>        -0.1726
     16 C10         8.2728    4.4143    0.0283 C.ar      1 <0>         0.1651
     17 N2          7.7802    3.9212    1.1475 N.ar      1 <0>        -0.4901
     18 C11         6.8216    3.0153    1.1436 C.ar      1 <0>         0.2063
     19 Br1         8.5136    4.7022   -2.7997 Br        1 <0>        -0.0347
     20 H1         -0.9597    1.9041    0.0259 H         1 <0>         0.1241
     21 H2          1.1519    3.1677    0.0077 H         1 <0>         0.1291
     22 H3         -0.9264   -0.5557    0.0082 H         1 <0>         0.1250
     23 H4          6.4076    2.6819   -2.1881 H         1 <0>         0.1580
     24 H5          9.0545    5.1582    0.0713 H         1 <0>         0.1679
     25 H6          6.4401    2.6382    2.0810 H         1 <0>         0.1786
@<TRIPOS>BOND
     1    1    6 ar
     2    1    2 ar
     3    1   20 1
     4    2    3 ar
     5    2   21 1
     6    3    4 ar
     7    3    9 1
     8    4    5 ar
     9    4    8 1
    10    5    6 ar
    11    5    7 1
    12    6   22 1
    13    9   10 1
    14   10   11 2
    15   10   12 2
    16   10   13 1
    17   13   18 ar
    18   13   14 ar
    19   14   15 ar
    20   14   23 1
    21   15   16 ar
    22   15   19 1
    23   16   17 ar
    24   16   24 1
    25   17   18 ar
    26   18   25 1
@<TRIPOS>MOLECULE
ZINC45905817
   52    54     0     0     0
SMALL
USER_CHARGES

@<TRIPOS>ATOM
      1 C1         -0.2532    1.4945    0.0395 C.3       1 <0>        -0.0801
      2 C2         -0.1728   -0.0102    0.0230 C.ar      1 <0>        -0.1416
      3 C3          0.7200   -0.6432   -0.8217 C.ar      1 <0>        -0.0847
      4 C4          0.7997   -2.0206   -0.8422 C.ar      1 <0>        -0.2008
      5 C5         -0.0232   -2.7800   -0.0084 C.ar      1 <0>        -0.0840
      6 C6         -0.9239   -2.1419    0.8437 C.ar      1 <0>        -0.2038
      7 C7         -0.9924   -0.7569    0.8611 C.ar      1 <0>         0.2833
      8 N1         -1.8890   -0.1124    1.7170 N.2       1 <0>        -1.0924
      9 S1         -2.8655   -1.0021    2.7156 S.o2      1 <0>         2.5215
     10 O1         -3.7037   -1.7417    1.8383 O.2       1 <0>        -1.0297
     11 O2         -1.9720   -1.6685    3.5970 O.2       1 <0>        -1.0254
     12 C8         -3.8426    0.2250    3.6266 C.3       1 <0>        -0.6382
     13 C9          0.0597   -4.2562   -0.0292 C.2       1 <0>         0.5599
     14 O3          0.2167   -4.8708    1.0076 O.2       1 <0>        -0.5166
     15 N2         -0.0389   -4.9203   -1.1979 N.am      1 <0>        -0.6008
     16 C10        -0.0505   -4.1945   -2.4765 C.3       1 <0>         0.0939
     17 C11        -1.2801   -4.6274   -3.2805 C.3       1 <0>        -0.1349
     18 C12        -1.2911   -6.1517   -3.4175 C.3       1 <0>        -0.0880
     19 H1         -2.1529   -6.4576   -4.0108 H         1 <0>         0.0687
     20 C13        -1.3787   -6.7843   -2.0233 C.3       1 <0>        -0.0908
     21 H2         -1.4226   -7.8696   -2.1147 H         1 <0>         0.0750
     22 C14        -0.1310   -6.3846   -1.2235 C.3       1 <0>         0.1549
     23 H3          0.7564   -6.7930   -1.7071 H         1 <0>         0.0666
     24 C15        -0.2121   -6.9313    0.1984 C.3       1 <0>        -0.1133
     25 C16        -1.4700   -6.4019    0.8892 C.3       1 <0>        -0.1250
     26 C17        -2.7033   -6.8446    0.0982 C.3       1 <0>        -0.1230
     27 C18        -2.6438   -6.2738   -1.3292 C.3       1 <0>        -0.1145
     28 C19        -0.0059   -6.6119   -4.1085 C.3       1 <0>        -0.1508
     29 H4          0.4481    1.8878    0.7754 H         1 <0>         0.0479
     30 H5         -0.0004    1.8828   -0.9471 H         1 <0>         0.0380
     31 H6         -1.2656    1.8014    0.3022 H         1 <0>         0.0724
     32 H7          1.3570   -0.0576   -1.4680 H         1 <0>         0.1082
     33 H8          1.4985   -2.5112   -1.5035 H         1 <0>         0.1067
     34 H9         -1.5632   -2.7242    1.4907 H         1 <0>         0.1070
     35 H10        -4.4226    0.8225    2.9232 H         1 <0>         0.1146
     36 H11        -4.5182   -0.2854    4.3130 H         1 <0>         0.1004
     37 H12        -3.1743    0.8753    4.1909 H         1 <0>         0.1149
     38 H13        -0.0970   -3.1221   -2.2872 H         1 <0>         0.1100
     39 H14         0.8539   -4.4292   -3.0378 H         1 <0>         0.0641
     40 H15        -2.1839   -4.3026   -2.7650 H         1 <0>         0.0739
     41 H16        -1.2444   -4.1739   -4.2711 H         1 <0>         0.0707
     42 H17        -0.2480   -8.0203    0.1660 H         1 <0>         0.0458
     43 H18         0.6683   -6.6159    0.7582 H         1 <0>         0.0954
     44 H19        -1.5245   -6.8010    1.9021 H         1 <0>         0.0527
     45 H20        -1.4335   -5.3132    0.9276 H         1 <0>         0.0941
     46 H21        -2.7316   -7.9330    0.0473 H         1 <0>         0.0505
     47 H22        -3.6033   -6.4792    0.5928 H         1 <0>         0.0561
     48 H23        -2.6148   -5.1854   -1.2773 H         1 <0>         0.0700
     49 H24        -3.5201   -6.5855   -1.8977 H         1 <0>         0.0569
     50 H25         0.8553   -6.3070   -3.5140 H         1 <0>         0.0600
     51 H26        -0.0144   -7.6975   -4.2058 H         1 <0>         0.0512
     52 H27         0.0568   -6.1589   -5.0979 H         1 <0>         0.0533
@<TRIPOS>BOND
     1    1    2 1
     2    1   29 1
     3    1   30 1
     4    1   31 1
     5    2    7 ar
     6    2    3 ar
     7    3    4 ar
     8    3   32 1
     9    4    5 ar
    10    4   33 1
    11    5    6 ar
    12    5   13 1
    13    6    7 ar
    14    6   34 1
    15    7    8 1
    16    8    9 1
    17    9   10 2
    18    9   11 2
    19    9   12 1
    20   12   35 1
    21   12   36 1
    22   12   37 1
    23   13   14 2
    24   13   15 am
    25   15   22 1
    26   15   16 1
    27   16   17 1
    28   16   38 1
    29   16   39 1
    30   17   18 1
    31   17   40 1
    32   17   41 1
    33   18   19 1
    34   18   20 1
    35   18   28 1
    36   20   21 1
    37   20   27 1
    38   20   22 1
    39   22   23 1
    40   22   24 1
    41   24   25 1
    42   24   42 1
    43   24   43 1
    44   25   26 1
    45   25   44 1
    46   25   45 1
    47   26   27 1
    48   26   46 1
    49   26   47 1
    50   27   48 1
    51   27   49 1
    52   28   50 1
    53   28   51 1
    54   28   52 1
@<TRIPOS>MOLECULE
ZINC15115014
   37    40     0     0     0
SMALL
USER_CHARGES

@<TRIPOS>ATOM
      1 C1         -0.0164    1.3570    0.0095 C.ar      1 <0>        -0.1101
      2 C2          1.1559    2.1003    0.0023 C.ar      1 <0>        -0.1057
      3 C3          2.3751    1.4492   -0.0129 C.ar      1 <0>        -0.0604
      4 C4          2.4044    0.0758   -0.0205 C.ar      1 <0>        -0.1781
      5 C5          1.2262   -0.7047   -0.0135 C.ar      1 <0>         0.0851
      6 C6          0.0021   -0.0041    0.0020 C.ar      1 <0>        -0.0655
      7 N1          1.4635   -2.0326   -0.0233 N.2       1 <0>        -0.5217
      8 C7          2.6693   -2.5212   -0.0378 C.2       1 <0>         0.1240
      9 S1          3.6694   -1.1675   -0.0399 S.3       1 <0>         0.0981
     10 C8          3.0782   -3.9717   -0.0496 C.3       1 <0>         0.0021
     11 C9          3.9218   -4.2737    1.1911 C.3       1 <0>        -0.1326
     12 C10         4.3064   -5.7565    1.1935 C.3       1 <0>         0.1544
     13 N2          4.9686   -6.0754   -0.0787 N.pl3     1 <0>        -0.6661
     14 C11         4.2829   -5.7426   -1.3348 C.3       1 <0>         0.1543
     15 C12         3.8985   -4.2600   -1.3089 C.3       1 <0>        -0.1326
     16 C13         6.2230   -6.6814   -0.0937 C.ar      1 <0>         0.1939
     17 C14         6.3516   -8.0708   -0.1082 C.ar      1 <0>        -0.0918
     18 N3          7.5492   -8.6180   -0.1226 N.ar      1 <0>        -0.2015
     19 N4          8.6243   -7.9179   -0.1240 N.ar      1 <0>        -0.3507
     20 C15         8.6070   -6.5938   -0.1111 C.ar      1 <0>         0.3706
     21 O1          9.7722   -5.8978   -0.1132 O.3       1 <0>        -0.6780
     22 C16         7.3913   -5.9187   -0.1006 C.ar      1 <0>        -0.1462
     23 Cl1         7.3293   -4.1838   -0.0902 Cl        1 <0>        -0.0760
     24 H1         -0.9661    1.8710    0.0259 H         1 <0>         0.1320
     25 H2          1.1157    3.1795    0.0081 H         1 <0>         0.1363
     26 H3          3.2953    2.0145   -0.0190 H         1 <0>         0.1329
     27 H4         -0.9285   -0.5522    0.0083 H         1 <0>         0.1308
     28 H5          2.1875   -4.6000   -0.0446 H         1 <0>         0.1047
     29 H6          4.8249   -3.6636    1.1743 H         1 <0>         0.0769
     30 H7          3.3450   -4.0460    2.0875 H         1 <0>         0.0713
     31 H8          4.9882   -5.9558    2.0203 H         1 <0>         0.0743
     32 H9          3.4096   -6.3665    1.3016 H         1 <0>         0.0541
     33 H10         4.9492   -5.9328   -2.1763 H         1 <0>         0.0744
     34 H11         3.3841   -6.3515   -1.4329 H         1 <0>         0.0541
     35 H12         3.3052   -4.0225   -2.1919 H         1 <0>         0.0714
     36 H13         4.8019   -3.6500   -1.3022 H         1 <0>         0.0769
     37 H14         5.4709   -8.6959   -0.1072 H         1 <0>         0.1444
@<TRIPOS>BOND
     1    1    6 ar
     2    1    2 ar
     3    1   24 1
     4    2    3 ar
     5    2   25 1
     6    3    4 ar
     7    3   26 1
     8    4    9 1
     9    4    5 ar
    10    5    6 ar
    11    5    7 1
    12    6   27 1
    13    7    8 2
    14    8    9 1
    15    8   10 1
    16   10   15 1
    17   10   11 1
    18   10   28 1
    19   11   12 1
    20   11   29 1
    21   11   30 1
    22   12   13 1
    23   12   31 1
    24   12   32 1
    25   13   14 1
    26   13   16 1
    27   14   15 1
    28   14   33 1
    29   14   34 1
    30   15   35 1
    31   15   36 1
    32   16   22 ar
    33   16   17 ar
    34   17   37 1
    35   17   18 ar
    36   18   19 ar
    37   19   20 ar
    38   20   21 1
    39   20   22 ar
    40   22   23 1
@<TRIPOS>MOLECULE
ZINC01290343
   33    35     0     0     0
SMALL
USER_CHARGES
2-[[5-oxo-7-(p-tolyl)-9-thia-2,4-diazabicyclo[4.3.0]nona-2,7,10-trien-3-yl]sulfanyl]acetic acid
@<TRIPOS>ATOM
      1 C1          3.7098   -0.7056   -0.0372 C.3       1 <0>        -0.1132
      2 C2          2.3964    0.0331   -0.0206 C.ar      1 <0>        -0.0848
      3 C3          1.2079   -0.6749   -0.0131 C.ar      1 <0>        -0.1298
      4 C4          0.0021   -0.0041    0.0020 C.ar      1 <0>        -0.0998
      5 C5         -0.0168    1.3901    0.0097 C.ar      1 <0>        -0.0427
      6 C6          1.1842    2.0982    0.0020 C.ar      1 <0>        -0.0520
      7 C7          2.3839    1.4164   -0.0136 C.ar      1 <0>        -0.1249
      8 C8         -1.3088    2.1166    0.0197 C.2       1 <0>        -0.0043
      9 C9         -2.2787    1.8105   -0.8733 C.2       1 <0>        -0.1986
     10 S1         -3.5968    2.9348   -0.4544 S.3       1 <0>         0.1357
     11 C10        -2.8194    3.7890    0.8926 C.2       1 <0>         0.1453
     12 C11        -1.5564    3.1795    0.9890 C.2       1 <0>        -0.2766
     13 C12        -0.6987    3.6823    2.0153 C.2       1 <0>         0.5623
     14 O1          0.4159    3.2137    2.1726 O.2       1 <0>        -0.5216
     15 N1         -1.1362    4.6791    2.8061 N.am      1 <0>        -0.6257
     16 H1         -0.5388    5.0329    3.5258 H         1 <0>         0.4290
     17 C13        -2.3803    5.2161    2.6440 C.2       1 <0>         0.3700
     18 N2         -3.1911    4.7711    1.7055 N.2       1 <0>        -0.5090
     19 S2         -2.9093    6.5208    3.7035 S.3       1 <0>         0.0795
     20 C14        -4.5687    6.8104    3.0410 C.3       1 <0>        -0.1444
     21 C15        -5.2327    7.9190    3.8164 C.2       1 <0>         0.4802
     22 O2         -4.6444    8.4579    4.7238 O.co2     1 <0>        -0.6199
     23 H2          4.0167   -0.8781   -1.0687 H         1 <0>         0.0681
     24 H3          4.4676   -0.1107    0.4727 H         1 <0>         0.0645
     25 H4          3.5952   -1.6621    0.4727 H         1 <0>         0.0641
     26 H5          1.2238   -1.7548   -0.0194 H         1 <0>         0.1199
     27 H6         -0.9251   -0.5578    0.0075 H         1 <0>         0.1211
     28 H7          1.1757    3.1781    0.0075 H         1 <0>         0.1176
     29 H8          3.3148    1.9638   -0.0199 H         1 <0>         0.1189
     30 H9         -2.2593    1.0627   -1.6524 H         1 <0>         0.1940
     31 H10        -4.4963    7.0942    1.9911 H         1 <0>         0.1079
     32 H11        -5.1600    5.8992    3.1312 H         1 <0>         0.1078
     33 O3         -6.4776    8.3076    3.4990 O.co2     1 <0>        -0.7385
@<TRIPOS>BOND
     1    1    2 1
     2    1   23 1
     3    1   24 1
     4    1   25 1
     5    2    7 ar
     6    2    3 ar
     7    3    4 ar
     8    3   26 1
     9    4    5 ar
    10    4   27 1
    11    5    6 ar
    12    5    8 1
    13    6    7 ar
    14    6   28 1
    15    7   29 1
    16    8   12 1
    17    8    9 2
    18    9   10 1
    19    9   30 1
    20   10   11 1
    21   11   18 1
    22   11   12 2
    23   12   13 1
    24   13   14 2
    25   13   15 am
    26   15   16 1
    27   15   17 1
    28   17   18 2
    29   17   19 1
    30   19   20 1
    31   20   21 1
    32   20   31 1
    33   20   32 1
    34   21   22 2
    35   21   33 1
@<TRIPOS>MOLECULE
ZINC13189647
   44    45     0     0     0
SMALL
USER_CHARGES
2-[2-[[(1S)-1-(4-ethylphenyl)ethyl]amino]-2-oxo-ethyl]sulfanylbenzoic acid
@<TRIPOS>ATOM
      1 C1         -1.8852   13.3707   -1.2879 C.3       1 <0>        -0.1468
      2 C2         -1.4673   12.2363   -2.2256 C.3       1 <0>        -0.0861
      3 C3         -1.8813   10.9148   -1.6311 C.ar      1 <0>        -0.0834
      4 C4         -3.1250   10.3858   -1.9213 C.ar      1 <0>        -0.1140
      5 C5         -3.5050    9.1739   -1.3756 C.ar      1 <0>        -0.1037
      6 C6         -2.6413    8.4910   -0.5397 C.ar      1 <0>        -0.0920
      7 C7         -1.3996    9.0226   -0.2454 C.ar      1 <0>        -0.1108
      8 C8         -1.0176   10.2320   -0.7953 C.ar      1 <0>        -0.1143
      9 C9         -3.0557    7.1701    0.0555 C.3       1 <0>         0.1833
     10 H1         -3.8698    6.7460   -0.5324 H         1 <0>         0.0976
     11 C10        -3.5248    7.3845    1.4960 C.3       1 <0>        -0.1581
     12 N1         -1.9153    6.2505    0.0451 N.am      1 <0>        -0.7285
     13 C11        -2.1234    4.9189    0.0389 C.2       1 <0>         0.5382
     14 O1         -3.2548    4.4819    0.0419 O.2       1 <0>        -0.5134
     15 C12        -0.9503    3.9730    0.0282 C.3       1 <0>        -0.2295
     16 S1         -1.5519    2.2659    0.0217 S.3       1 <0>         0.0996
     17 C13        -0.0170    1.4007    0.0097 C.ar      1 <0>        -0.0897
     18 C14         1.1823    2.1044    0.0021 C.ar      1 <0>        -0.1574
     19 C15         2.3820    1.4246   -0.0135 C.ar      1 <0>        -0.1042
     20 C16         2.4041    0.0381   -0.0207 C.ar      1 <0>        -0.1504
     21 C17         1.2274   -0.6772   -0.0133 C.ar      1 <0>        -0.0580
     22 C18         0.0021   -0.0041    0.0020 C.ar      1 <0>        -0.1053
     23 C19        -1.2600   -0.7624    0.0095 C.2       1 <0>         0.4840
     24 O2         -2.3229   -0.1732    0.0224 O.co2     1 <0>        -0.5942
     25 H2         -2.9672   13.3542   -1.1573 H         1 <0>         0.0557
     26 H3         -1.4004   13.2397   -0.3205 H         1 <0>         0.0555
     27 H4         -1.5857   14.3265   -1.7180 H         1 <0>         0.0573
     28 H5         -0.3852   12.2528   -2.3563 H         1 <0>         0.0712
     29 H6         -1.9521   12.3673   -3.1931 H         1 <0>         0.0713
     30 H7         -3.8000   10.9194   -2.5740 H         1 <0>         0.1224
     31 H8         -4.4768    8.7607   -1.6019 H         1 <0>         0.1253
     32 H9         -0.7266    8.4913    0.4111 H         1 <0>         0.1209
     33 H10        -0.0461   10.6455   -0.5683 H         1 <0>         0.1217
     34 H11        -2.7108    7.8086    2.0839 H         1 <0>         0.0573
     35 H12        -4.3733    8.0687    1.5037 H         1 <0>         0.0659
     36 H13        -3.8246    6.4291    1.9265 H         1 <0>         0.0686
     37 H14        -1.0105    6.6000    0.0427 H         1 <0>         0.3979
     38 H15        -0.3407    4.1401    0.9162 H         1 <0>         0.1051
     39 H16        -0.3492    4.1497   -0.8637 H         1 <0>         0.1050
     40 H17         1.1742    3.1843    0.0076 H         1 <0>         0.1173
     41 H18         3.3107    1.9759   -0.0198 H         1 <0>         0.1153
     42 H19         3.3496   -0.4837   -0.0325 H         1 <0>         0.1172
     43 H20         1.2511   -1.7569   -0.0197 H         1 <0>         0.1338
     44 O3         -1.2365   -2.1100    0.0020 O.co2     1 <0>        -0.7479
@<TRIPOS>BOND
     1    1    2 1
     2    1   25 1
     3    1   26 1
     4    1   27 1
     5    2    3 1
     6    2   28 1
     7    2   29 1
     8    3    8 ar
     9    3    4 ar
    10    4    5 ar
    11    4   30 1
    12    5    6 ar
    13    5   31 1
    14    6    7 ar
    15    6    9 1
    16    7    8 ar
    17    7   32 1
    18    8   33 1
    19    9   10 1
    20    9   11 1
    21    9   12 1
    22   11   34 1
    23   11   35 1
    24   11   36 1
    25   12   13 am
    26   12   37 1
    27   13   14 2
    28   13   15 1
    29   15   16 1
    30   15   38 1
    31   15   39 1
    32   16   17 1
    33   17   22 ar
    34   17   18 ar
    35   18   19 ar
    36   18   40 1
    37   19   20 ar
    38   19   41 1
    39   20   21 ar
    40   20   42 1
    41   21   22 ar
    42   21   43 1
    43   22   23 1
    44   23   24 2
    45   23   44 1
@<TRIPOS>MOLECULE
ZINC13443251
   44    45     0     0     0
SMALL
USER_CHARGES
4-[2-[[2-(2,5-dimethylphenyl)sulfanylacetyl]amino]ethyl]benzoic acid
@<TRIPOS>ATOM
      1 C1         -2.5617    3.8631    0.0468 C.3       1 <0>        -0.1153
      2 C2         -1.2434    3.1330    0.0308 C.ar      1 <0>        -0.0732
      3 C3         -1.2199    1.7500    0.0174 C.ar      1 <0>        -0.1245
      4 C4         -0.0126    1.0758    0.0080 C.ar      1 <0>        -0.0989
      5 C5          1.1744    1.7817    0.0004 C.ar      1 <0>        -0.0702
      6 C6          1.1546    3.1711    0.0081 C.ar      1 <0>        -0.0986
      7 C7         -0.0608    3.8453    0.0233 C.ar      1 <0>        -0.1339
      8 S1          2.6664    4.0760   -0.0009 S.3       1 <0>        -0.0227
      9 C8          2.1392    5.8116    0.0132 C.3       1 <0>        -0.1582
     10 C9          3.3526    6.7053    0.0069 C.2       1 <0>         0.5298
     11 O1          4.4637    6.2192   -0.0059 O.2       1 <0>        -0.5162
     12 N1          3.2031    8.0447    0.0155 N.am      1 <0>        -0.7240
     13 C10         4.3827    8.9134    0.0093 C.3       1 <0>         0.1229
     14 C11         3.9380   10.3773    0.0213 C.3       1 <0>        -0.0818
     15 C12         5.1514   11.2710    0.0150 C.ar      1 <0>        -0.0987
     16 C13         5.7135   11.6776    1.2122 C.ar      1 <0>        -0.1313
     17 C14         6.8271   12.4917    1.2136 C.ar      1 <0>        -0.0766
     18 C15         7.3807   12.9140    0.0034 C.ar      1 <0>        -0.1109
     19 C16         6.8052   12.5043   -1.2010 C.ar      1 <0>        -0.0856
     20 C17         5.6949   11.6859   -1.1880 C.ar      1 <0>        -0.1305
     21 C18         8.5702   13.7901   -0.0028 C.2       1 <0>         0.4873
     22 O2          9.0498   14.1556   -1.0573 O.co2     1 <0>        -0.6312
     23 C19         2.4895    1.0461   -0.0166 C.3       1 <0>        -0.1190
     24 H1         -2.8891    4.0443   -0.9770 H         1 <0>         0.0714
     25 H2         -3.3059    3.2580    0.5645 H         1 <0>         0.0679
     26 H3         -2.4435    4.8151    0.5643 H         1 <0>         0.0657
     27 H4         -2.1466    1.1954    0.0187 H         1 <0>         0.1232
     28 H5          0.0021   -0.0041    0.0020 H         1 <0>         0.1270
     29 H6         -0.0800    4.9252    0.0289 H         1 <0>         0.1208
     30 H7          1.5338    6.0146   -0.8702 H         1 <0>         0.1159
     31 H8          1.5501    6.0051    0.9097 H         1 <0>         0.1157
     32 H9          2.3145    8.4334    0.0257 H         1 <0>         0.4011
     33 H10         4.9881    8.7104    0.8927 H         1 <0>         0.0742
     34 H11         4.9718    8.7200   -0.8871 H         1 <0>         0.0740
     35 H12         3.3326   10.5804   -0.8621 H         1 <0>         0.0751
     36 H13         3.3489   10.5708    0.9178 H         1 <0>         0.0753
     37 H14         5.2818   11.3535    2.1476 H         1 <0>         0.1153
     38 H15         7.2675   12.8047    2.1488 H         1 <0>         0.1307
     39 H16         7.2287   12.8271   -2.1406 H         1 <0>         0.1268
     40 H17         5.2490   11.3679   -2.1188 H         1 <0>         0.1150
     41 H18         2.7966    0.8746   -1.0483 H         1 <0>         0.0759
     42 H19         3.2461    1.6425    0.4933 H         1 <0>         0.0735
     43 H20         2.3771    0.0891    0.4929 H         1 <0>         0.0707
     44 O3          9.1229   14.1836    1.1609 O.co2     1 <0>        -0.7541
@<TRIPOS>BOND
     1    1    2 1
     2    1   24 1
     3    1   25 1
     4    1   26 1
     5    2    7 ar
     6    2    3 ar
     7    3    4 ar
     8    3   27 1
     9    4    5 ar
    10    4   28 1
    11    5    6 ar
    12    5   23 1
    13    6    7 ar
    14    6    8 1
    15    7   29 1
    16    8    9 1
    17    9   10 1
    18    9   30 1
    19    9   31 1
    20   10   11 2
    21   10   12 am
    22   12   13 1
    23   12   32 1
    24   13   14 1
    25   13   33 1
    26   13   34 1
    27   14   15 1
    28   14   35 1
    29   14   36 1
    30   15   20 ar
    31   15   16 ar
    32   16   17 ar
    33   16   37 1
    34   17   18 ar
    35   17   38 1
    36   18   19 ar
    37   18   21 1
    38   19   20 ar
    39   19   39 1
    40   20   40 1
    41   21   22 2
    42   21   44 1
    43   23   41 1
    44   23   42 1
    45   23   43 1
@<TRIPOS>MOLECULE
ZINC37305148
   32    33     0     0     0
SMALL
USER_CHARGES

@<TRIPOS>ATOM
      1 C1         -0.0187    1.5258    0.0104 C.3       1 <0>        -0.1640
      2 C2          0.0021   -0.0041    0.0020 C.3       1 <0>         0.1872
      3 H1          0.5123   -0.3556   -0.8948 H         1 <0>         0.0958
      4 C3         -1.4117   -0.5257    0.0127 C.ar      1 <0>        -0.0614
      5 C4         -2.1227   -0.5709    1.1974 C.ar      1 <0>        -0.1084
      6 C5         -3.4195   -1.0493    1.2075 C.ar      1 <0>        -0.0824
      7 C6         -4.0056   -1.4827    0.0324 C.ar      1 <0>        -0.1022
      8 C7         -3.2942   -1.4374   -1.1527 C.ar      1 <0>        -0.0816
      9 C8         -1.9994   -0.9536   -1.1631 C.ar      1 <0>        -0.1033
     10 I1         -5.9709   -2.2085    0.0474 I         1 <0>        -0.0497
     11 N1          0.7106   -0.4894    1.1889 N.pl3     1 <0>        -0.7458
     12 C9          2.1046   -0.6040    1.1731 C.ar      1 <0>         0.1685
     13 C10         2.8152   -0.2535    0.0379 C.ar      1 <0>        -0.1343
     14 C11         4.2078   -0.3698    0.0271 C.ar      1 <0>        -0.0964
     15 C12         4.8744   -0.8394    1.1627 C.ar      1 <0>        -0.1107
     16 C13         4.1582   -1.1865    2.2884 C.ar      1 <0>        -0.1256
     17 C14         2.7784   -1.0654    2.3015 C.ar      1 <0>         0.0070
     18 F1          2.0834   -1.4016    3.4101 F         1 <0>        -0.1551
     19 C15         4.9714    0.0009   -1.1780 C.2       1 <0>         0.5203
     20 O1          4.3862    0.4112   -2.1706 O.co2     1 <0>        -0.6853
     21 O2          6.1902   -0.1016   -1.1854 O.co2     1 <0>        -0.6834
     22 H2          1.0039    1.9031    0.0027 H         1 <0>         0.0720
     23 H3         -0.5459    1.8868   -0.8726 H         1 <0>         0.0653
     24 H4         -0.5289    1.8773    0.9072 H         1 <0>         0.0569
     25 H5         -1.6647   -0.2327    2.1152 H         1 <0>         0.1294
     26 H6         -3.9747   -1.0849    2.1332 H         1 <0>         0.1288
     27 H7         -3.7517   -1.7758   -2.0706 H         1 <0>         0.1305
     28 H8         -1.4453   -0.9137   -2.0893 H         1 <0>         0.1366
     29 H9          0.2131   -0.7312    1.9857 H         1 <0>         0.3960
     30 H10         2.2950    0.1084   -0.8367 H         1 <0>         0.1361
     31 H11         5.9506   -0.9306    1.1580 H         1 <0>         0.1333
     32 H12         4.6750   -1.5497    3.1644 H         1 <0>         0.1261
@<TRIPOS>BOND
     1    1    2 1
     2    1   22 1
     3    1   23 1
     4    1   24 1
     5    2    3 1
     6    2    4 1
     7    2   11 1
     8    4    9 ar
     9    4    5 ar
    10    5    6 ar
    11    5   25 1
    12    6    7 ar
    13    6   26 1
    14    7    8 ar
    15    7   10 1
    16    8    9 ar
    17    8   27 1
    18    9   28 1
    19   11   12 1
    20   11   29 1
    21   12   17 ar
    22   12   13 ar
    23   13   14 ar
    24   13   30 1
    25   14   15 ar
    26   14   19 1
    27   15   16 ar
    28   15   31 1
    29   16   17 ar
    30   16   32 1
    31   17   18 1
    32   19   20 2
    33   19   21 1
@<TRIPOS>MOLECULE
ZINC52538482
   40    42     0     0     0
SMALL
USER_CHARGES

@<TRIPOS>ATOM
      1 C1         -1.3477    1.0964    0.0277 C.3       1 <0>        -0.1096
      2 C2         -1.0222   -0.3749    0.0424 C.ar      1 <0>        -0.0949
      3 C3         -0.9936   -1.0883   -1.1413 C.ar      1 <0>        -0.1292
      4 C4         -0.6949   -2.4379   -1.1279 C.ar      1 <0>        -0.0964
      5 C5         -0.4245   -3.0741    0.0692 C.ar      1 <0>        -0.0875
      6 C6         -0.4522   -2.3605    1.2528 C.ar      1 <0>        -0.1020
      7 C7         -0.7466   -1.0099    1.2389 C.ar      1 <0>        -0.1221
      8 C8         -0.0999   -4.5456    0.0840 C.3       1 <0>         0.2344
      9 H1         -0.4590   -5.0119   -0.8334 H         1 <0>         0.1221
     10 C9          1.3986   -4.7395    0.2059 C.2       1 <0>        -0.4094
     11 C10         1.9722   -4.6327    1.5621 C.2       1 <0>         0.4291
     12 N1          1.1816   -4.9187    2.5944 N.2       1 <0>        -0.5614
     13 C11        -0.0894   -5.2726    2.4199 C.2       1 <0>         0.5616
     14 S1         -0.9532   -5.8764    3.7690 S.2       1 <0>        -0.6801
     15 N2         -0.7320   -5.1823    1.2455 N.pl3     1 <0>        -0.6771
     16 C12         3.3647   -4.2251    1.7651 C.2       1 <0>        -0.1506
     17 C13         4.2424   -4.5812    2.7824 C.2       1 <0>        -0.0975
     18 C14         5.4988   -4.0328    2.7036 C.2       1 <0>        -0.1838
     19 C15         5.7937   -3.2041    1.6697 C.2       1 <0>        -0.2692
     20 S2          4.3775   -3.1493    0.7677 S.3       1 <0>         0.2805
     21 C16         2.1721   -4.9982   -0.8748 C.2       1 <0>         0.3137
     22 O1          3.4830   -5.2996   -0.7130 O.3       1 <0>        -0.5847
     23 C17         1.5867   -4.9518   -2.2304 C.2       1 <0>         0.4693
     24 O2          0.4544   -4.5420   -2.3892 O.2       1 <0>        -0.4995
     25 O3          2.3090   -5.3641   -3.2907 O.3       1 <0>        -0.3316
     26 C18         1.6801   -5.2915   -4.5718 C.3       1 <0>         0.0285
     27 H2         -0.4287    1.6708   -0.0890 H         1 <0>         0.0662
     28 H3         -2.0188    1.3118   -0.8038 H         1 <0>         0.0618
     29 H4         -1.8311    1.3710    0.9653 H         1 <0>         0.0622
     30 H5         -1.2049   -0.5913   -2.0766 H         1 <0>         0.1160
     31 H6         -0.6733   -2.9954   -2.0526 H         1 <0>         0.1415
     32 H7         -0.2412   -2.8576    2.1882 H         1 <0>         0.1146
     33 H8         -0.7646   -0.4516    2.1632 H         1 <0>         0.1162
     34 H9          3.9546   -5.2460    3.5833 H         1 <0>         0.1421
     35 H10         6.2422   -4.2575    3.4542 H         1 <0>         0.1255
     36 H11         6.7273   -2.6992    1.4699 H         1 <0>         0.1784
     37 H12         2.3688   -5.6526   -5.3357 H         1 <0>         0.0971
     38 H13         0.7819   -5.9091   -4.5712 H         1 <0>         0.0572
     39 H14         1.4098   -4.2575   -4.7858 H         1 <0>         0.0579
     40 H15        -1.6284   -5.5436    1.1620 H         1 <0>         0.4109
@<TRIPOS>BOND
     1    1    2 1
     2    1   27 1
     3    1   28 1
     4    1   29 1
     5    2    7 ar
     6    2    3 ar
     7    3    4 ar
     8    3   30 1
     9    4    5 ar
    10    4   31 1
    11    5    6 ar
    12    5    8 1
    13    6    7 ar
    14    6   32 1
    15    7   33 1
    16    8    9 1
    17    8   15 1
    18    8   10 1
    19   10   11 1
    20   10   21 2
    21   11   12 2
    22   11   16 1
    23   12   13 1
    24   13   14 2
    25   13   15 1
    26   15   40 1
    27   16   20 1
    28   16   17 2
    29   17   18 1
    30   17   34 1
    31   18   19 2
    32   18   35 1
    33   19   20 1
    34   19   36 1
    35   21   22 1
    36   21   23 1
    37   23   24 2
    38   23   25 1
    39   25   26 1
    40   26   37 1
    41   26   38 1
    42   26   39 1
@<TRIPOS>MOLECULE
ZINC08322723
   35    36     0     0     0
SMALL
USER_CHARGES
4-[3-(4-hydroxy-3-methoxy-phenyl)-3-oxo-prop-1-enyl]benzoic acid
@<TRIPOS>ATOM
      1 C1         -2.3893    5.2338    0.0521 C.3       1 <0>         0.0228
      2 O1         -2.4391    3.8057    0.0449 O.3       1 <0>        -0.3079
      3 C2         -1.2498    3.1464    0.0300 C.ar      1 <0>         0.0886
      4 C3         -0.0660    3.8577    0.0225 C.ar      1 <0>        -0.1417
      5 C4          1.1548    3.1769    0.0076 C.ar      1 <0>        -0.1251
      6 C5          1.1719    1.7792    0.0004 C.ar      1 <0>        -0.0899
      7 C6         -0.0126    1.0758    0.0080 C.ar      1 <0>        -0.1191
      8 C7         -1.2255    1.7522    0.0174 C.ar      1 <0>         0.1025
      9 O2         -2.3903    1.0543    0.0191 O.3       1 <0>        -0.4854
     10 C8          2.4232    3.9324   -0.0009 C.2       1 <0>         0.4283
     11 O3          2.4067    5.1495    0.0054 O.2       1 <0>        -0.4669
     12 C9          3.7015    3.2173   -0.0170 C.2       1 <0>        -0.2650
     13 C10         4.8608    3.9078   -0.0248 C.2       1 <0>         0.0189
     14 C11         6.1452    3.1892   -0.0409 C.ar      1 <0>        -0.1056
     15 C12         6.1648    1.7900   -0.0423 C.ar      1 <0>        -0.1085
     16 C13         7.3663    1.1192   -0.0618 C.ar      1 <0>        -0.0851
     17 C14         8.5665    1.8347   -0.0699 C.ar      1 <0>        -0.0895
     18 C15         8.5482    3.2319   -0.0636 C.ar      1 <0>        -0.0944
     19 C16         7.3477    3.9048   -0.0490 C.ar      1 <0>        -0.1034
     20 C17         9.8560    1.1133   -0.0845 C.2       1 <0>         0.4851
     21 O4         10.8995    1.7349   -0.0912 O.co2     1 <0>        -0.6268
     22 H1         -1.8546    5.5742    0.9388 H         1 <0>         0.0574
     23 H2         -1.8716    5.5838   -0.8410 H         1 <0>         0.0578
     24 H3         -3.4036    5.6327    0.0639 H         1 <0>         0.1025
     25 H4         -0.0834    4.9376    0.0277 H         1 <0>         0.1436
     26 H5          2.1137    1.2508   -0.0107 H         1 <0>         0.1427
     27 H6          0.0021   -0.0041    0.0020 H         1 <0>         0.1443
     28 H7         -2.7235    0.8473    0.9030 H         1 <0>         0.3902
     29 H8          3.7161    2.1374   -0.0225 H         1 <0>         0.1357
     30 H9          4.8462    4.9876   -0.0192 H         1 <0>         0.1305
     31 H10         5.2373    1.2368   -0.0316 H         1 <0>         0.1227
     32 H11         7.3816    0.0393   -0.0666 H         1 <0>         0.1357
     33 H12         9.4764    3.7840   -0.0698 H         1 <0>         0.1320
     34 H13         7.3338    4.9847   -0.0434 H         1 <0>         0.1227
     35 O5          9.8742   -0.2337   -0.0906 O.co2     1 <0>        -0.7496
@<TRIPOS>BOND
     1    1    2 1
     2    1   22 1
     3    1   23 1
     4    1   24 1
     5    2    3 1
     6    3    8 ar
     7    3    4 ar
     8    4    5 ar
     9    4   25 1
    10    5    6 ar
    11    5   10 1
    12    6    7 ar
    13    6   26 1
    14    7    8 ar
    15    7   27 1
    16    8    9 1
    17    9   28 1
    18   10   11 2
    19   10   12 1
    20   12   13 2
    21   12   29 1
    22   13   14 1
    23   13   30 1
    24   14   19 ar
    25   14   15 ar
    26   15   16 ar
    27   15   31 1
    28   16   17 ar
    29   16   32 1
    30   17   18 ar
    31   17   20 1
    32   18   19 ar
    33   18   33 1
    34   19   34 1
    35   20   21 2
    36   20   35 1
@<TRIPOS>MOLECULE
ZINC20005949
   33    33     0     0     0
SMALL
USER_CHARGES
6-[(2,4-dichlorobenzoyl)amino]hexanoic acid
@<TRIPOS>ATOM
      1 C1         -3.6287   -1.2283    0.0125 C.ar      1 <0>        -0.1140
      2 C2         -2.4409   -0.5282    0.0108 C.ar      1 <0>        -0.0620
      3 C3         -2.4563    0.8679    0.0184 C.ar      1 <0>        -0.1208
      4 C4         -3.6778    1.5472    0.0337 C.ar      1 <0>         0.0222
      5 C5         -4.8600    0.8343    0.0295 C.ar      1 <0>        -0.1136
      6 C6         -4.8365   -0.5501    0.0224 C.ar      1 <0>        -0.0042
      7 Cl1        -6.3273   -1.4397    0.0251 Cl        1 <0>        -0.0514
      8 Cl2        -3.7082    3.2828    0.0505 Cl        1 <0>        -0.0161
      9 C7         -1.1873    1.6238    0.0165 C.2       1 <0>         0.5495
     10 O1         -1.2038    2.8393    0.0232 O.2       1 <0>        -0.5160
     11 N1         -0.0111    0.9658    0.0074 N.am      1 <0>        -0.7318
     12 C8          1.2475    1.7155   -0.0006 C.3       1 <0>         0.1212
     13 C9          2.4238    0.7372   -0.0171 C.3       1 <0>        -0.1302
     14 C10         3.7382    1.5202   -0.0255 C.3       1 <0>        -0.1175
     15 C11         4.9145    0.5419   -0.0420 C.3       1 <0>        -0.0976
     16 C12         6.2290    1.3248   -0.0503 C.3       1 <0>        -0.1593
     17 C13         7.3875    0.3612   -0.0665 C.2       1 <0>         0.4571
     18 O2          7.1829   -0.8296   -0.0710 O.co2     1 <0>        -0.6432
     19 O3          8.6468    0.8258   -0.0761 O.co2     1 <0>        -0.7788
     20 H1         -3.6174   -2.3083    0.0066 H         1 <0>         0.1476
     21 H2         -1.5002   -1.0588    0.0038 H         1 <0>         0.1471
     22 H3         -5.8049    1.3574    0.0372 H         1 <0>         0.1501
     23 H4          0.0039   -0.1341    0.0060 H         1 <0>         0.4174
     24 H5          1.2886    2.3535   -0.8958 H         1 <0>         0.0689
     25 H6          1.3058    2.3438    0.9004 H         1 <0>         0.0688
     26 H7          2.3827    0.0993    0.8781 H         1 <0>         0.0695
     27 H8          2.3655    0.1088   -0.9181 H         1 <0>         0.0695
     28 H9          3.7792    2.1581   -0.9207 H         1 <0>         0.0612
     29 H10         3.7965    2.1486    0.8755 H         1 <0>         0.0612
     30 H11         4.8734   -0.0961    0.8532 H         1 <0>         0.0601
     31 H12         4.8563   -0.0864   -0.9430 H         1 <0>         0.0601
     32 H13         6.2701    1.9627   -0.9455 H         1 <0>         0.0625
     33 H14         6.2873    1.9531    0.8507 H         1 <0>         0.0625
@<TRIPOS>BOND
     1    1    6 ar
     2    1    2 ar
     3    1   20 1
     4    2    3 ar
     5    2   21 1
     6    3    4 ar
     7    3    9 1
     8    4    5 ar
     9    4    8 1
    10    5    6 ar
    11    5   22 1
    12    6    7 1
    13    9   10 2
    14    9   11 am
    15   11   12 1
    16   11   23 1
    17   12   13 1
    18   12   24 1
    19   12   25 1
    20   13   14 1
    21   13   26 1
    22   13   27 1
    23   14   15 1
    24   14   28 1
    25   14   29 1
    26   15   16 1
    27   15   30 1
    28   15   31 1
    29   16   17 1
    30   16   32 1
    31   16   33 1
    32   17   18 2
    33   17   19 1
@<TRIPOS>MOLECULE
ZINC35424890
   35    36     0     0     0
SMALL
USER_CHARGES

@<TRIPOS>ATOM
      1 C1         -0.0167    1.3788    0.0096 C.ar      1 <0>        -0.1287
      2 C2          1.1695    2.0899    0.0021 C.ar      1 <0>        -0.1009
      3 C3          2.3774    1.4209   -0.0134 C.ar      1 <0>        -0.1019
      4 C4          2.4001    0.0314   -0.0211 C.ar      1 <0>        -0.0819
      5 C5          1.2062   -0.6798   -0.0130 C.ar      1 <0>        -0.1358
      6 C6          0.0021   -0.0041    0.0020 C.ar      1 <0>        -0.1008
      7 S1          3.9390   -0.8266   -0.0415 S.3       1 <0>        -0.1077
      8 C7          3.4652   -2.5776   -0.0459 C.3       1 <0>        -0.1079
      9 C8          4.7243   -3.4466   -0.0635 C.3       1 <0>        -0.0921
     10 C9          4.3247   -4.9235   -0.0672 C.3       1 <0>        -0.1258
     11 C10         5.5649   -5.7794   -0.0846 C.2       1 <0>         0.4959
     12 O1          6.6605   -5.2594   -0.0931 O.2       1 <0>        -0.4995
     13 N1          5.4565   -7.1228   -0.0906 N.am      1 <0>        -0.6160
     14 C11         6.5986   -7.9111   -0.1066 C.2       1 <0>        -0.0553
     15 C12         6.6787   -9.2864   -0.1203 C.2       1 <0>        -0.2131
     16 C13         7.9150   -9.8718   -0.1358 C.2       1 <0>        -0.1238
     17 C14         9.0005   -9.0007   -0.1361 C.2       1 <0>        -0.2274
     18 S2          8.2013   -7.4075   -0.1209 S.3       1 <0>         0.2910
     19 C15        10.3798   -9.3015   -0.1494 C.2       1 <0>         0.5505
     20 O2         10.7523  -10.4693   -0.1629 O.co2     1 <0>        -0.6791
     21 O3         11.2049   -8.3950   -0.1474 O.co2     1 <0>        -0.6857
     22 H1         -0.9599    1.9047    0.0260 H         1 <0>         0.1239
     23 H2          1.1511    3.1697    0.0081 H         1 <0>         0.1273
     24 H3          3.3033    1.9769   -0.0200 H         1 <0>         0.1282
     25 H4          1.2201   -1.7597   -0.0189 H         1 <0>         0.1230
     26 H5         -0.9262   -0.5561    0.0079 H         1 <0>         0.1247
     27 H6          2.8835   -2.7989    0.8489 H         1 <0>         0.0896
     28 H7          2.8651   -2.7894   -0.9309 H         1 <0>         0.0895
     29 H8          5.3060   -3.2253   -0.9583 H         1 <0>         0.0865
     30 H9          5.3243   -3.2348    0.8215 H         1 <0>         0.0865
     31 H10         3.7429   -5.1447    0.8276 H         1 <0>         0.0997
     32 H11         3.7246   -5.1353   -0.9522 H         1 <0>         0.0997
     33 H12         4.5802   -7.5387   -0.0838 H         1 <0>         0.4114
     34 H13         5.7833   -9.8904   -0.1186 H         1 <0>         0.1187
     35 H14         8.0411  -10.9444   -0.1467 H         1 <0>         0.1373
@<TRIPOS>BOND
     1    1    6 ar
     2    1    2 ar
     3    1   22 1
     4    2    3 ar
     5    2   23 1
     6    3    4 ar
     7    3   24 1
     8    4    5 ar
     9    4    7 1
    10    5    6 ar
    11    5   25 1
    12    6   26 1
    13    7    8 1
    14    8    9 1
    15    8   27 1
    16    8   28 1
    17    9   10 1
    18    9   29 1
    19    9   30 1
    20   10   11 1
    21   10   31 1
    22   10   32 1
    23   11   12 2
    24   11   13 am
    25   13   14 1
    26   13   33 1
    27   14   18 1
    28   14   15 2
    29   15   16 1
    30   15   34 1
    31   16   17 2
    32   16   35 1
    33   17   18 1
    34   17   19 1
    35   19   20 2
    36   19   21 1
@<TRIPOS>MOLECULE
ZINC41666851
   34    35     0     0     0
SMALL
USER_CHARGES

@<TRIPOS>ATOM
      1 C1          1.5244    1.0610   -0.2751 C.3       1 <0>        -0.1138
      2 C2          0.7352   -0.2151   -0.1343 C.ar      1 <0>        -0.0690
      3 C3         -0.0113   -0.6867   -1.1988 C.ar      1 <0>        -0.1377
      4 C4         -0.7364   -1.8572   -1.0737 C.ar      1 <0>        -0.0959
      5 C5         -0.7174   -2.5595    0.1157 C.ar      1 <0>        -0.1265
      6 C6          0.0310   -2.0886    1.1863 C.ar      1 <0>         0.1539
      7 C7          0.7626   -0.9152    1.0557 C.ar      1 <0>        -0.1470
      8 N1          0.0521   -2.7974    2.3926 N.am      1 <0>        -0.6716
      9 C8         -0.0314   -4.1425    2.3854 C.2       1 <0>         0.5341
     10 O1         -0.0283   -4.7447    1.3326 O.2       1 <0>        -0.5010
     11 C9         -0.1286   -4.8984    3.6855 C.3       1 <0>        -0.1373
     12 S1         -0.2263   -6.6774    3.3448 S.3       1 <0>        -0.0149
     13 C10        -0.3336   -7.4122    4.9426 C.ar      1 <0>         0.0873
     14 C11        -0.4187   -8.8003    5.0570 C.ar      1 <0>        -0.1580
     15 C12        -0.5020   -9.3676    6.2983 C.ar      1 <0>        -0.0307
     16 C13        -0.4986   -8.5238    7.4226 C.ar      1 <0>        -0.1785
     17 C14        -0.4108   -7.1417    7.2332 C.ar      1 <0>         0.1365
     18 N2         -0.3270   -6.6378    6.0206 N.ar      1 <0>        -0.5047
     19 C15        -0.5868   -9.0871    8.7787 C.2       1 <0>         0.5243
     20 O2         -0.6637  -10.2983    8.9343 O.co2     1 <0>        -0.6821
     21 O3         -0.5831   -8.3445    9.7511 O.co2     1 <0>        -0.6821
     22 H1          2.5240    0.8311   -0.6440 H         1 <0>         0.0710
     23 H2          1.0210    1.7238   -0.9789 H         1 <0>         0.0671
     24 H3          1.5992    1.5510    0.6956 H         1 <0>         0.0662
     25 H4         -0.0281   -0.1393   -2.1296 H         1 <0>         0.1220
     26 H5         -1.3186   -2.2227   -1.9067 H         1 <0>         0.1259
     27 H6         -1.2843   -3.4736    0.2129 H         1 <0>         0.1352
     28 H7          1.3490   -0.5486    1.8852 H         1 <0>         0.1254
     29 H8          0.1268   -2.3206    3.2340 H         1 <0>         0.4143
     30 H9          0.7532   -4.6925    4.2923 H         1 <0>         0.1226
     31 H10        -1.0220   -4.5820    4.2238 H         1 <0>         0.1238
     32 H11        -0.4192   -9.4209    4.1731 H         1 <0>         0.1321
     33 H12        -0.5691  -10.4395    6.4123 H         1 <0>         0.1433
     34 H13        -0.4073   -6.4827    8.0888 H         1 <0>         0.1657
@<TRIPOS>BOND
     1    1    2 1
     2    1   22 1
     3    1   23 1
     4    1   24 1
     5    2    7 ar
     6    2    3 ar
     7    3    4 ar
     8    3   25 1
     9    4    5 ar
    10    4   26 1
    11    5    6 ar
    12    5   27 1
    13    6    7 ar
    14    6    8 1
    15    7   28 1
    16    8    9 am
    17    8   29 1
    18    9   10 2
    19    9   11 1
    20   11   12 1
    21   11   30 1
    22   11   31 1
    23   12   13 1
    24   13   18 ar
    25   13   14 ar
    26   14   15 ar
    27   14   32 1
    28   15   16 ar
    29   15   33 1
    30   16   17 ar
    31   16   19 1
    32   17   18 ar
    33   17   34 1
    34   19   20 2
    35   19   21 1
@<TRIPOS>MOLECULE
ZINC61213536
   35    35     0     0     0
SMALL
USER_CHARGES

@<TRIPOS>ATOM
      1 C1         -0.0205    1.5508   -0.0102 C.3       1 <0>        -0.1758
      2 C2          0.0052    0.0210   -0.0052 C.3       1 <0>         0.1009
      3 N1          0.6900   -0.4598   -1.2077 N.am      1 <0>        -0.5928
      4 C3          2.1383   -0.6797   -1.1875 C.3       1 <0>         0.1734
      5 H1          2.4656   -1.0346   -2.1647 H         1 <0>         0.1035
      6 C4          2.8491    0.6346   -0.8579 C.3       1 <0>        -0.1615
      7 C5          2.4807   -1.7252   -0.1242 C.3       1 <0>        -0.1996
      8 C6          1.8814   -3.0521   -0.5131 C.2       1 <0>         0.4863
      9 O1          1.2400   -3.1522   -1.5451 O.co2     1 <0>        -0.6736
     10 O2          2.0381   -4.0254    0.2042 O.co2     1 <0>        -0.7139
     11 C7         -0.0123   -0.7000   -2.3327 C.2       1 <0>         0.7224
     12 O3          0.5560   -1.0991   -3.3307 O.2       1 <0>        -0.5472
     13 N2         -1.3447   -0.4978   -2.3513 N.am      1 <0>        -0.6846
     14 C8         -2.0570   -0.6333   -3.5498 C.ar      1 <0>         0.1754
     15 C9         -1.4105   -0.4630   -4.7660 C.ar      1 <0>        -0.1019
     16 C10        -2.1161   -0.5973   -5.9473 C.ar      1 <0>        -0.0199
     17 C11        -3.4659   -0.9013   -5.9184 C.ar      1 <0>        -0.1174
     18 C12        -4.1134   -1.0717   -4.7088 C.ar      1 <0>        -0.1178
     19 C13        -3.4119   -0.9444   -3.5236 C.ar      1 <0>         0.0570
     20 F1         -4.0436   -1.1169   -2.3419 F         1 <0>        -0.1361
     21 Cl1        -1.3080   -0.3838   -7.4689 Cl        1 <0>        -0.0649
     22 H2          1.0009    1.9313   -0.0234 H         1 <0>         0.0680
     23 H3         -0.5506    1.9024   -0.8953 H         1 <0>         0.0530
     24 H4         -0.5300    1.9085    0.8845 H         1 <0>         0.0628
     25 H5          0.5354   -0.3306    0.8799 H         1 <0>         0.0846
     26 H6         -1.0161   -0.3595    0.0080 H         1 <0>         0.0643
     27 H7          3.9266    0.4710   -0.8429 H         1 <0>         0.0627
     28 H8          2.6052    1.3794   -1.6155 H         1 <0>         0.0518
     29 H9          2.5217    0.9895    0.1193 H         1 <0>         0.0552
     30 H10         3.5634   -1.8240   -0.0472 H         1 <0>         0.0671
     31 H11         2.0752   -1.4114    0.8377 H         1 <0>         0.0570
     32 H12        -1.8104   -0.2584   -1.5347 H         1 <0>         0.4067
     33 H13        -0.3572   -0.2254   -4.7896 H         1 <0>         0.1697
     34 H14        -4.0147   -1.0053   -6.8428 H         1 <0>         0.1399
     35 H15        -5.1669   -1.3086   -4.6894 H         1 <0>         0.1451
@<TRIPOS>BOND
     1    1    2 1
     2    1   22 1
     3    1   23 1
     4    1   24 1
     5    2    3 1
     6    2   25 1
     7    2   26 1
     8    3    4 1
     9    3   11 am
    10    4    5 1
    11    4    6 1
    12    4    7 1
    13    6   27 1
    14    6   28 1
    15    6   29 1
    16    7    8 1
    17    7   30 1
    18    7   31 1
    19    8    9 2
    20    8   10 1
    21   11   12 2
    22   11   13 am
    23   13   14 1
    24   13   32 1
    25   14   19 ar
    26   14   15 ar
    27   15   16 ar
    28   15   33 1
    29   16   17 ar
    30   16   21 1
    31   17   18 ar
    32   17   34 1
    33   18   19 ar
    34   18   35 1
    35   19   20 1
@<TRIPOS>MOLECULE
ZINC02551763
   31    32     0     0     0
SMALL
USER_CHARGES
2-hydroxy-3-phenyl-3-(2-pyridylsulfanyl)propanoic acid
@<TRIPOS>ATOM
      1 C1         -0.6314    5.8201   -1.2763 C.ar      1 <0>        -0.1218
      2 C2         -0.1687    5.1016   -2.3628 C.ar      1 <0>        -0.1192
      3 C3         -0.2010    3.7198   -2.3422 C.ar      1 <0>        -0.0867
      4 C4         -0.6956    3.0564   -1.2349 C.ar      1 <0>        -0.0601
      5 C5         -1.1631    3.7750   -0.1504 C.ar      1 <0>        -0.1159
      6 C6         -1.1268    5.1567   -0.1693 C.ar      1 <0>        -0.1211
      7 C7         -0.7307    1.5500   -1.2124 C.3       1 <0>        -0.0311
      8 H1         -0.5135    1.1666   -2.2094 H         1 <0>         0.1162
      9 C8          0.3173    1.0301   -0.2265 C.3       1 <0>         0.0724
     10 H2          0.2563   -0.0568   -0.1710 H         1 <0>         0.1177
     11 C9          1.6917    1.4328   -0.6955 C.2       1 <0>         0.4489
     12 O1          2.3545    2.1986   -0.0367 O.co2     1 <0>        -0.6275
     13 O2          0.0729    1.5875    1.0664 O.3       1 <0>        -0.5523
     14 S1         -2.3772    0.9913   -0.6952 S.3       1 <0>        -0.0704
     15 C10        -2.3041   -0.7614   -0.8607 C.ar      1 <0>         0.1278
     16 C11        -3.4170   -1.5320   -0.5365 C.ar      1 <0>        -0.1588
     17 C12        -3.3470   -2.9060   -0.6757 C.ar      1 <0>        -0.0620
     18 C13        -2.1589   -3.4672   -1.1262 C.ar      1 <0>        -0.1906
     19 C14        -1.0923   -2.6435   -1.4248 C.ar      1 <0>         0.1201
     20 N1         -1.1887   -1.3346   -1.2874 N.ar      1 <0>        -0.4776
     21 H3         -0.6055    6.8997   -1.2920 H         1 <0>         0.1185
     22 H4          0.2184    5.6199   -3.2277 H         1 <0>         0.1211
     23 H5          0.1605    3.1585   -3.1912 H         1 <0>         0.1252
     24 H6         -1.5536    3.2567    0.7129 H         1 <0>         0.1330
     25 H7         -1.4880    5.7180    0.6798 H         1 <0>         0.1212
     26 H8          0.2170    2.5423    1.1167 H         1 <0>         0.3681
     27 H9         -4.3240   -1.0629   -0.1849 H         1 <0>         0.1355
     28 H10        -4.1958   -3.5291   -0.4355 H         1 <0>         0.1347
     29 H11        -2.0707   -4.5373   -1.2421 H         1 <0>         0.1332
     30 H12        -0.1669   -3.0758   -1.7757 H         1 <0>         0.1582
     31 O3          2.1795    0.9407   -1.8451 O.co2     1 <0>        -0.7566
@<TRIPOS>BOND
     1    1    6 ar
     2    1    2 ar
     3    1   21 1
     4    2    3 ar
     5    2   22 1
     6    3    4 ar
     7    3   23 1
     8    4    5 ar
     9    4    7 1
    10    5    6 ar
    11    5   24 1
    12    6   25 1
    13    7    8 1
    14    7    9 1
    15    7   14 1
    16    9   10 1
    17    9   11 1
    18    9   13 1
    19   11   12 2
    20   11   31 1
    21   13   26 1
    22   14   15 1
    23   15   20 ar
    24   15   16 ar
    25   16   17 ar
    26   16   27 1
    27   17   18 ar
    28   17   28 1
    29   18   19 ar
    30   18   29 1
    31   19   20 ar
    32   19   30 1
@<TRIPOS>MOLECULE
ZINC36391195
   31    32     0     0     0
SMALL
USER_CHARGES

@<TRIPOS>ATOM
      1 C1         -0.0187    1.5258    0.0104 C.3       1 <0>        -0.1484
      2 C2          0.0021   -0.0041    0.0020 C.3       1 <0>        -0.0398
      3 C3         -1.4117   -0.5257    0.0127 C.2       1 <0>        -0.1423
      4 C4         -2.2207   -0.8207   -1.0341 C.2       1 <0>        -0.1602
      5 C5         -3.4955   -1.2927   -0.7839 C.2       1 <0>        -0.1403
      6 C6         -3.8991   -1.4465    0.5009 C.2       1 <0>        -0.1527
      7 S1         -2.4530   -0.9228    1.4074 S.3       1 <0>         0.0442
      8 C7         -5.2230   -1.9376    1.0274 C.3       1 <0>         0.2105
      9 N1         -5.1733   -3.3923    1.1933 N.am      1 <0>        -0.7458
     10 C8         -6.2520   -4.0551    1.6554 C.2       1 <0>         0.5495
     11 O1         -7.2666   -3.4456    1.9347 O.2       1 <0>        -0.4634
     12 C9         -6.2020   -5.5187    1.8223 C.ar      1 <0>        -0.2283
     13 C10        -5.0390   -6.2323    1.5102 C.ar      1 <0>        -0.0279
     14 C11        -5.0432   -7.6046    1.6843 C.ar      1 <0>        -0.2567
     15 C12        -6.1846   -8.2287    2.1571 C.ar      1 <0>         0.1366
     16 N2         -7.2706   -7.5395    2.4457 N.ar      1 <0>        -0.5104
     17 C13        -7.3197   -6.2230    2.3033 C.ar      1 <0>         0.3410
     18 S2         -8.7957   -5.3517    2.7117 S.3       1 <0>        -0.7984
     19 H1          1.0039    1.9031    0.0027 H         1 <0>         0.0620
     20 H2         -0.5459    1.8868   -0.8726 H         1 <0>         0.0582
     21 H3         -0.5289    1.8773    0.9072 H         1 <0>         0.0581
     22 H4          0.5123   -0.3556   -0.8948 H         1 <0>         0.0845
     23 H5          0.5293   -0.3651    0.8851 H         1 <0>         0.0780
     24 H6         -1.8744   -0.6887   -2.0486 H         1 <0>         0.1303
     25 H7         -4.1603   -1.5349   -1.5999 H         1 <0>         0.1345
     26 H8         -5.4276   -1.4689    1.9901 H         1 <0>         0.0774
     27 H9         -6.0130   -1.6791    0.3223 H         1 <0>         0.0862
     28 H10        -4.3641   -3.8785    0.9705 H         1 <0>         0.3892
     29 H11        -4.1600   -5.7241    1.1422 H         1 <0>         0.1158
     30 H12        -4.1624   -8.1850    1.4525 H         1 <0>         0.1190
     31 H13        -6.1855   -9.3002    2.2918 H         1 <0>         0.1396
@<TRIPOS>BOND
     1    1    2 1
     2    1   19 1
     3    1   20 1
     4    1   21 1
     5    2    3 1
     6    2   22 1
     7    2   23 1
     8    3    7 1
     9    3    4 2
    10    4    5 1
    11    4   24 1
    12    5    6 2
    13    5   25 1
    14    6    7 1
    15    6    8 1
    16    8    9 1
    17    8   26 1
    18    8   27 1
    19    9   10 am
    20    9   28 1
    21   10   11 2
    22   10   12 1
    23   12   17 ar
    24   12   13 ar
    25   13   14 ar
    26   13   29 1
    27   14   15 ar
    28   14   30 1
    29   15   16 ar
    30   15   31 1
    31   16   17 ar
    32   17   18 1
@<TRIPOS>MOLECULE
ZINC41035227
   37    39     0     0     0
SMALL
USER_CHARGES

@<TRIPOS>ATOM
      1 C1         -0.0839    1.5240    0.1678 C.3       1 <0>        -0.1497
      2 C2         -0.0631   -0.0058    0.1594 C.3       1 <0>        -0.0891
      3 H1         -1.0718   -0.3838    0.3261 H         1 <0>         0.0617
      4 C3          0.4500   -0.5015   -1.1941 C.3       1 <0>        -0.1104
      5 C4          1.8659    0.0291   -1.4281 C.3       1 <0>        -0.1217
      6 C5          2.7894   -0.4746   -0.3171 C.3       1 <0>        -0.1063
      7 C6          2.2762    0.0211    1.0364 C.3       1 <0>         0.1175
      8 C7          0.8604   -0.5095    1.2704 C.3       1 <0>        -0.1078
      9 C8          3.1858   -0.4750    2.1307 C.2       1 <0>         0.5014
     10 O1          3.7639    0.3213    2.8507 O.co2     1 <0>        -0.6680
     11 O2          3.3437   -1.6726    2.2962 O.co2     1 <0>        -0.6951
     12 N1          2.2564    1.4859    1.0445 N.pl3     1 <0>        -0.6349
     13 C9          1.8490    2.1643    2.1751 C.2       1 <0>         0.4818
     14 N2          1.4530    1.6784    3.3295 N.2       1 <0>        -0.5598
     15 C10         1.0795    2.4691    4.3596 C.ar      1 <0>         0.1592
     16 C11         0.6360    2.0779    5.6439 C.ar      1 <0>        -0.0998
     17 C12         0.2918    3.0161    6.5818 C.ar      1 <0>        -0.0999
     18 C13         0.3648    4.3743    6.3091 C.ar      1 <0>        -0.1476
     19 C14         0.7946    4.7926    5.0628 C.ar      1 <0>        -0.0503
     20 C15         1.1412    3.8601    4.1176 C.ar      1 <0>        -0.1733
     21 S1          1.7336    3.9274    2.4439 S.3       1 <0>        -0.0953
     22 H2          0.8694    1.9023   -0.2014 H         1 <0>         0.0660
     23 H3         -0.8894    1.8800   -0.4745 H         1 <0>         0.0377
     24 H4         -0.2464    1.8796    1.1853 H         1 <0>         0.0499
     25 H5          0.4648   -1.5914   -1.2001 H         1 <0>         0.0619
     26 H6         -0.2079   -0.1427   -1.9856 H         1 <0>         0.0549
     27 H7          2.2314   -0.3240   -2.3924 H         1 <0>         0.0601
     28 H8          1.8511    1.1190   -1.4221 H         1 <0>         0.0576
     29 H9          2.8041   -1.5644   -0.3231 H         1 <0>         0.0865
     30 H10         3.7980   -0.0966   -0.4838 H         1 <0>         0.0609
     31 H11         0.4948   -0.1563    2.2347 H         1 <0>         0.0785
     32 H12         0.8752   -1.5993    1.2644 H         1 <0>         0.0731
     33 H13         2.5295    1.9790    0.2551 H         1 <0>         0.4070
     34 H14         0.5673    1.0282    5.8883 H         1 <0>         0.1248
     35 H15        -0.0443    2.6906    7.5552 H         1 <0>         0.1220
     36 H16         0.0886    5.0977    7.0620 H         1 <0>         0.1255
     37 H17         0.8566    5.8464    4.8348 H         1 <0>         0.1205
@<TRIPOS>BOND
     1    1    2 1
     2    1   22 1
     3    1   23 1
     4    1   24 1
     5    2    3 1
     6    2    8 1
     7    2    4 1
     8    4    5 1
     9    4   25 1
    10    4   26 1
    11    5    6 1
    12    5   27 1
    13    5   28 1
    14    6    7 1
    15    6   29 1
    16    6   30 1
    17    7    8 1
    18    7    9 1
    19    7   12 1
    20    8   31 1
    21    8   32 1
    22    9   10 2
    23    9   11 1
    24   12   13 1
    25   12   33 1
    26   13   21 1
    27   13   14 2
    28   14   15 1
    29   15   20 ar
    30   15   16 ar
    31   16   17 ar
    32   16   34 1
    33   17   18 ar
    34   17   35 1
    35   18   19 ar
    36   18   36 1
    37   19   20 ar
    38   19   37 1
    39   20   21 1
@<TRIPOS>MOLECULE
ZINC41758375
   47    48     0     0     0
SMALL
USER_CHARGES

@<TRIPOS>ATOM
      1 C1         -4.1281   -5.4974    4.0282 C.3       1 <0>        -0.1064
      2 C2         -3.0359   -5.2504    3.0197 C.ar      1 <0>        -0.0645
      3 C3         -2.9408   -6.0494    1.8948 C.ar      1 <0>        -0.1940
      4 C4         -1.9400   -5.8265    0.9672 C.ar      1 <0>        -0.0835
      5 C5         -1.0317   -4.8041    1.1612 C.ar      1 <0>        -0.1940
      6 C6         -1.1245   -3.9996    2.2895 C.ar      1 <0>         0.2638
      7 C7         -2.1346   -4.2231    3.2169 C.ar      1 <0>        -0.1415
      8 N1         -0.2077   -2.9649    2.4888 N.pl3     1 <0>        -0.7096
      9 C8         -0.2655   -2.1603    3.7117 C.3       1 <0>         0.1116
     10 C9          0.8078   -1.0713    3.6569 C.3       1 <0>        -0.0958
     11 C10         2.1879   -1.7210    3.5387 C.3       1 <0>        -0.0948
     12 H1          2.2310   -2.3196    2.6288 H         1 <0>         0.0669
     13 C11         2.4344   -2.6194    4.7524 C.3       1 <0>        -0.0969
     14 C12         1.3611   -3.7084    4.8072 C.3       1 <0>        -0.0608
     15 C13        -0.0191   -3.0587    4.9254 C.3       1 <0>        -0.1060
     16 C14         1.6076   -4.6068    6.0209 C.3       1 <0>        -0.1375
     17 C15         1.4215   -4.5487    3.5300 C.3       1 <0>        -0.1414
     18 C16         3.2612   -0.6319    3.4840 C.3       1 <0>        -0.1444
     19 C17        -1.6249   -1.5205    3.8281 C.2       1 <0>         0.4886
     20 O1         -2.4674   -1.7182    2.9692 O.co2     1 <0>        -0.6703
     21 O2         -1.8824   -0.8051    4.7813 O.co2     1 <0>        -0.6978
     22 C18         0.0592   -4.5623    0.1499 C.3       1 <0>        -0.0948
     23 H2         -5.0098   -4.9160    3.7586 H         1 <0>         0.0643
     24 H3         -4.3810   -6.5576    4.0376 H         1 <0>         0.0555
     25 H4         -3.7836   -5.1972    5.0178 H         1 <0>         0.0584
     26 H5         -3.6498   -6.8494    1.7407 H         1 <0>         0.1026
     27 H6         -1.8681   -6.4527    0.0902 H         1 <0>         0.1052
     28 H7         -2.2120   -3.5967    4.0934 H         1 <0>         0.1287
     29 H8          0.4674   -2.7791    1.8175 H         1 <0>         0.3852
     30 H9          0.6322   -0.4313    2.7923 H         1 <0>         0.0562
     31 H10         0.7647   -0.4727    4.5668 H         1 <0>         0.0777
     32 H11         3.4176   -3.0822    4.6682 H         1 <0>         0.0534
     33 H12         2.3913   -2.0207    5.6623 H         1 <0>         0.0588
     34 H13        -0.0621   -2.4601    5.8353 H         1 <0>         0.0676
     35 H14        -0.7837   -3.8346    4.9644 H         1 <0>         0.0669
     36 H15         1.5645   -4.0081    6.9307 H         1 <0>         0.0502
     37 H16         0.8429   -5.3826    6.0599 H         1 <0>         0.0516
     38 H17         2.5908   -5.0696    5.9366 H         1 <0>         0.0472
     39 H18         2.3088   -5.1814    3.5530 H         1 <0>         0.0293
     40 H19         0.5311   -5.1738    3.4639 H         1 <0>         0.0562
     41 H20         1.4678   -3.8894    2.6632 H         1 <0>         0.0729
     42 H21         3.2182   -0.0333    4.3939 H         1 <0>         0.0533
     43 H22         4.2445   -1.0948    3.3998 H         1 <0>         0.0489
     44 H23         3.0856    0.0081    2.6193 H         1 <0>         0.0512
     45 H24        -0.2942   -3.8594   -0.6046 H         1 <0>         0.0550
     46 H25         0.9339   -4.1479    0.6511 H         1 <0>         0.0513
     47 H26         0.3268   -5.5045   -0.3282 H         1 <0>         0.0554
@<TRIPOS>BOND
     1    1    2 1
     2    1   23 1
     3    1   24 1
     4    1   25 1
     5    2    7 ar
     6    2    3 ar
     7    3    4 ar
     8    3   26 1
     9    4    5 ar
    10    4   27 1
    11    5    6 ar
    12    5   22 1
    13    6    7 ar
    14    6    8 1
    15    7   28 1
    16    8    9 1
    17    8   29 1
    18    9   15 1
    19    9   10 1
    20    9   19 1
    21   10   11 1
    22   10   30 1
    23   10   31 1
    24   11   12 1
    25   11   13 1
    26   11   18 1
    27   13   14 1
    28   13   32 1
    29   13   33 1
    30   14   15 1
    31   14   16 1
    32   14   17 1
    33   15   34 1
    34   15   35 1
    35   16   36 1
    36   16   37 1
    37   16   38 1
    38   17   39 1
    39   17   40 1
    40   17   41 1
    41   18   42 1
    42   18   43 1
    43   18   44 1
    44   19   20 2
    45   19   21 1
    46   22   45 1
    47   22   46 1
    48   22   47 1
@<TRIPOS>MOLECULE
ZINC57574235
   42    42     0     0     0
SMALL
USER_CHARGES

@<TRIPOS>ATOM
      1 C1         -0.0184    1.5028    0.0103 C.3       1 <0>        -0.1121
      2 C2          0.0021   -0.0041    0.0020 C.ar      1 <0>        -0.0879
      3 C3          0.0057   -0.6887   -1.1989 C.ar      1 <0>        -0.1270
      4 C4          0.0245   -2.0709   -1.2065 C.ar      1 <0>        -0.0735
      5 C5          0.0400   -2.7685   -0.0132 C.ar      1 <0>        -0.0831
      6 C6          0.0373   -2.0839    1.1877 C.ar      1 <0>        -0.0735
      7 C7          0.0229   -0.7016    1.1953 C.ar      1 <0>        -0.1270
      8 C8          0.0538   -2.8444    2.4886 C.3       1 <0>        -0.1194
      9 C9          0.0595   -4.2753   -0.0215 C.3       1 <0>        -0.0853
     10 C10         1.5084   -4.7666   -0.0322 C.3       1 <0>        -0.1105
     11 C11         1.5281   -6.2965   -0.0406 C.3       1 <0>         0.1672
     12 C12         0.8205   -6.8225    1.2097 C.3       1 <0>        -0.1629
     13 C13         0.8066   -6.8090   -1.2887 C.3       1 <0>        -0.1628
     14 N1          2.9155   -6.7669   -0.0509 N.am      1 <0>        -0.7162
     15 C14         3.1788   -8.0887   -0.0595 C.2       1 <0>         0.4565
     16 O1          2.2670   -8.8888   -0.0588 O.2       1 <0>        -0.5460
     17 C15         4.5964   -8.5693   -0.0700 C.2       1 <0>         0.4934
     18 O2          4.8348   -9.7660   -0.0778 O.co2     1 <0>        -0.6483
     19 O3          5.5135   -7.7645   -0.0707 O.co2     1 <0>        -0.6740
     20 C16         0.0274   -2.8172   -2.5157 C.3       1 <0>        -0.1195
     21 H1          1.0042    1.8801    0.0026 H         1 <0>         0.0681
     22 H2         -0.5455    1.8639   -0.8728 H         1 <0>         0.0635
     23 H3         -0.5286    1.8543    0.9071 H         1 <0>         0.0634
     24 H4         -0.0064   -0.1436   -2.1312 H         1 <0>         0.1176
     25 H5          0.0245   -0.1667    2.1335 H         1 <0>         0.1176
     26 H6          1.0853   -3.0144    2.7970 H         1 <0>         0.0723
     27 H7         -0.4637   -2.2661    3.2541 H         1 <0>         0.0624
     28 H8         -0.4484   -3.8026    2.3557 H         1 <0>         0.0721
     29 H9         -0.4447   -4.6501    0.8693 H         1 <0>         0.0796
     30 H10        -0.4546   -4.6404   -0.9106 H         1 <0>         0.0796
     31 H11         2.0126   -4.3918   -0.9230 H         1 <0>         0.0678
     32 H12         2.0224   -4.4015    0.8569 H         1 <0>         0.0678
     33 H13        -0.2118   -6.4725    1.2174 H         1 <0>         0.0561
     34 H14         0.8345   -7.9124    1.2037 H         1 <0>         0.0780
     35 H15         1.3345   -6.4574    2.0989 H         1 <0>         0.0507
     36 H16         1.3108   -6.4342   -2.1794 H         1 <0>         0.0507
     37 H17         0.8207   -7.8988   -1.2947 H         1 <0>         0.0780
     38 H18        -0.2256   -6.4589   -1.2810 H         1 <0>         0.0561
     39 H19         3.6446   -6.1271   -0.0514 H         1 <0>         0.4033
     40 H20         1.0557   -2.9832   -2.8370 H         1 <0>         0.0723
     41 H21        -0.4727   -3.7772   -2.3878 H         1 <0>         0.0721
     42 H22        -0.4985   -2.2310   -3.2693 H         1 <0>         0.0624
@<TRIPOS>BOND
     1    1    2 1
     2    1   21 1
     3    1   22 1
     4    1   23 1
     5    2    7 ar
     6    2    3 ar
     7    3    4 ar
     8    3   24 1
     9    4    5 ar
    10    4   20 1
    11    5    6 ar
    12    5    9 1
    13    6    7 ar
    14    6    8 1
    15    7   25 1
    16    8   26 1
    17    8   27 1
    18    8   28 1
    19    9   10 1
    20    9   29 1
    21    9   30 1
    22   10   11 1
    23   10   31 1
    24   10   32 1
    25   11   12 1
    26   11   13 1
    27   11   14 1
    28   12   33 1
    29   12   34 1
    30   12   35 1
    31   13   36 1
    32   13   37 1
    33   13   38 1
    34   14   15 am
    35   14   39 1
    36   15   16 2
    37   15   17 1
    38   17   18 2
    39   17   19 1
    40   20   40 1
    41   20   41 1
    42   20   42 1
@<TRIPOS>MOLECULE
ZINC03830949
   28    28     0     0     0
SMALL
USER_CHARGES
2-[(3-amino-2,4,6-triiodo-phenyl)methyl]butanoic acid
@<TRIPOS>ATOM
      1 C1         -3.3860   -0.6391    0.4343 C.3       1 <0>        -0.1486
      2 C2         -3.9976    0.5057    1.2444 C.3       1 <0>        -0.0994
      3 C3         -2.9362    1.5798    1.4910 C.3       1 <0>        -0.1301
      4 H1         -2.0555    1.1233    1.9427 H         1 <0>         0.0802
      5 C4         -2.5488    2.2287    0.1607 C.3       1 <0>        -0.0930
      6 C5         -1.4307    3.2130    0.3888 C.ar      1 <0>         0.0727
      7 C6         -1.6706    4.5706    0.2720 C.ar      1 <0>        -0.1237
      8 C7         -0.6459    5.4770    0.4753 C.ar      1 <0>         0.0072
      9 C8          0.6203    5.0292    0.8007 C.ar      1 <0>        -0.1871
     10 C9          0.8632    3.6671    0.9239 C.ar      1 <0>         0.2889
     11 C10        -0.1686    2.7591    0.7194 C.ar      1 <0>        -0.1797
     12 I1          0.1915    0.7035    0.9040 I         1 <0>        -0.0306
     13 N1          2.1428    3.2108    1.2524 N.pl3     1 <0>        -0.8677
     14 I2          2.1716    6.4032    1.1084 I         1 <0>        -0.0442
     15 I3         -3.5883    5.2545   -0.2218 I         1 <0>         0.0078
     16 C11        -3.4901    2.6295    2.4195 C.2       1 <0>         0.4588
     17 O1         -3.7097    3.7444    2.0087 O.co2     1 <0>        -0.6107
     18 H2         -2.9628   -0.2449   -0.4896 H         1 <0>         0.0506
     19 H3         -2.6004   -1.1184    1.0184 H         1 <0>         0.0505
     20 H4         -4.1593   -1.3698    0.1969 H         1 <0>         0.0450
     21 H5         -4.3564    0.1234    2.2000 H         1 <0>         0.0680
     22 H6         -4.8305    0.9384    0.6904 H         1 <0>         0.0539
     23 H7         -3.4118    2.7491   -0.2547 H         1 <0>         0.0951
     24 H8         -2.2185    1.4588   -0.5366 H         1 <0>         0.0735
     25 H9         -0.8354    6.5359    0.3793 H         1 <0>         0.1341
     26 H10         2.3113    2.2594    1.3379 H         1 <0>         0.4021
     27 H11         2.8623    3.8456    1.3949 H         1 <0>         0.4007
     28 O2         -3.7396    2.3260    3.7030 O.co2     1 <0>        -0.7745
@<TRIPOS>BOND
     1    1    2 1
     2    1   18 1
     3    1   19 1
     4    1   20 1
     5    2    3 1
     6    2   21 1
     7    2   22 1
     8    3    4 1
     9    3    5 1
    10    3   16 1
    11    5    6 1
    12    5   23 1
    13    5   24 1
    14    6   11 ar
    15    6    7 ar
    16    7    8 ar
    17    7   15 1
    18    8    9 ar
    19    8   25 1
    20    9   10 ar
    21    9   14 1
    22   10   11 ar
    23   10   13 1
    24   11   12 1
    25   13   26 1
    26   13   27 1
    27   16   17 2
    28   16   28 1
@<TRIPOS>MOLECULE
ZINC19938485
   75    79     0     0     0
SMALL
USER_CHARGES
(5R)-5-(4-tert-butylphenyl)-3-hydroxy-4-[(2S)-2-methyl2,3-dihydrobenzofuran-5-carbonyl]-1-(3-morpholinopropyl)-5H-pyrrol-2-one
@<TRIPOS>ATOM
      1 C1         -3.2240    6.6001   -4.2999 C.3       1 <0>        -0.1799
      2 C2         -2.2884    7.4715   -3.4594 C.3       1 <0>         0.0725
      3 H1         -2.5014    8.5191   -3.7184 H         1 <0>         0.1142
      4 C3         -2.4167    7.1228   -1.9577 C.3       1 <0>        -0.0978
      5 C4         -1.3177    6.0925   -1.7809 C.ar      1 <0>        -0.1860
      6 C5         -1.0635    5.1800   -0.7875 C.ar      1 <0>        -0.0236
      7 C6          0.0403    4.3269   -0.8913 C.ar      1 <0>        -0.1607
      8 C7          0.8765    4.4169   -2.0086 C.ar      1 <0>        -0.0327
      9 C8          0.6106    5.3317   -2.9990 C.ar      1 <0>        -0.1537
     10 C9         -0.4881    6.1874   -2.8952 C.ar      1 <0>         0.1174
     11 O1         -0.9135    7.1622   -3.7425 O.3       1 <0>        -0.3026
     12 C10         0.3237    3.3440    0.1729 C.2       1 <0>         0.5029
     13 O2         -0.4584    3.2024    1.0945 O.2       1 <0>        -0.4783
     14 C11         1.5476    2.5380    0.1196 C.2       1 <0>        -0.4958
     15 C12         1.6235    1.1876    0.0762 C.2       1 <0>         0.2659
     16 C13         3.0442    0.7821    0.0366 C.2       1 <0>         0.5112
     17 O3          3.4408   -0.3657   -0.0020 O.2       1 <0>        -0.5344
     18 N1          3.8332    1.8718    0.0460 N.am      1 <0>        -0.6104
     19 C14         2.9671    3.0553    0.1026 C.3       1 <0>         0.2620
     20 H2          3.1620    3.7060   -0.7626 H         1 <0>         0.0669
     21 C15         3.2468    3.8425    1.3569 C.ar      1 <0>        -0.0765
     22 C16         3.3466    3.1928    2.5729 C.ar      1 <0>        -0.0796
     23 C17         3.6071    3.9144    3.7228 C.ar      1 <0>        -0.1254
     24 C18         3.7595    5.2868    3.6579 C.ar      1 <0>        -0.0787
     25 C19         3.6544    5.9372    2.4426 C.ar      1 <0>        -0.1194
     26 C20         3.3978    5.2151    1.2922 C.ar      1 <0>        -0.1129
     27 C21         4.0397    6.0740    4.9121 C.3       1 <0>        -0.0254
     28 C22         2.9214    7.0943    5.1343 C.3       1 <0>        -0.1390
     29 C23         4.1063    5.1217    6.1077 C.3       1 <0>        -0.1446
     30 C24         5.3758    6.8052    4.7674 C.3       1 <0>        -0.1367
     31 C25         5.2978    1.8761    0.0129 C.3       1 <0>         0.1395
     32 C26         5.8404    1.8326    1.4428 C.3       1 <0>        -0.1425
     33 C27         7.3700    1.8371    1.4082 C.3       1 <0>         0.0606
     34 N2          7.8910    1.7953    2.7811 N.3       1 <0>        -0.5336
     35 C28         7.5606    3.0298    3.5077 C.3       1 <0>         0.0158
     36 C29         8.0686    2.9195    4.9477 C.3       1 <0>         0.0629
     37 O4          9.4749    2.6596    4.9332 O.3       1 <0>        -0.3877
     38 C30         9.8323    1.4642    4.2342 C.3       1 <0>         0.0624
     39 C31         9.3421    1.5599    2.7869 C.3       1 <0>         0.0170
     40 O5          0.5667    0.3427    0.0751 O.3       1 <0>        -0.6492
     41 H3         -4.2688    6.8536   -4.0672 H         1 <0>         0.0739
     42 H4         -3.0437    5.5399   -4.0688 H         1 <0>         0.0642
     43 H5         -3.0321    6.7804   -5.3679 H         1 <0>         0.0665
     44 H6         -2.2590    8.0300   -1.3559 H         1 <0>         0.0879
     45 H7         -3.4213    6.7211   -1.7591 H         1 <0>         0.0904
     46 H8         -1.7141    5.1211    0.0726 H         1 <0>         0.1306
     47 H9          1.7313    3.7626   -2.0954 H         1 <0>         0.1426
     48 H10         1.2577    5.3919   -3.8615 H         1 <0>         0.1275
     49 H11         3.2242    2.1210    2.6241 H         1 <0>         0.1151
     50 H12         3.6888    3.4063    4.6723 H         1 <0>         0.1194
     51 H13         3.7731    7.0095    2.3920 H         1 <0>         0.1128
     52 H14         3.3157    5.7232    0.3427 H         1 <0>         0.1160
     53 H15         3.1259    7.6689    6.0497 H         1 <0>         0.0538
     54 H16         1.9608    6.5686    5.2383 H         1 <0>         0.0574
     55 H17         2.8736    7.7789    4.2746 H         1 <0>         0.0557
     56 H18         4.3108    5.6963    7.0231 H         1 <0>         0.0540
     57 H19         4.9103    4.3882    5.9479 H         1 <0>         0.0578
     58 H20         3.1457    4.5960    6.2117 H         1 <0>         0.0597
     59 H21         5.5803    7.3798    5.6828 H         1 <0>         0.0541
     60 H22         5.3279    7.4898    3.9078 H         1 <0>         0.0554
     61 H23         6.1798    6.0717    4.6076 H         1 <0>         0.0547
     62 H24         5.6546    0.9956   -0.5416 H         1 <0>         0.0778
     63 H25         5.6506    2.7910   -0.4855 H         1 <0>         0.0719
     64 H26         5.4836    2.7131    1.9973 H         1 <0>         0.0790
     65 H27         5.4876    0.9177    1.9412 H         1 <0>         0.0750
     66 H28         7.7268    0.9567    0.8537 H         1 <0>         0.0762
     67 H29         7.7228    2.7521    0.9098 H         1 <0>         0.0340
     68 H30         8.0406    3.8866    3.0121 H         1 <0>         0.0395
     69 H31         6.4699    3.1723    3.5115 H         1 <0>         0.0943
     70 H32         7.8736    3.8630    5.4786 H         1 <0>         0.0969
     71 H33         7.5470    2.0968    5.4586 H         1 <0>         0.0599
     72 H34        10.9258    1.3456    4.2460 H         1 <0>         0.0963
     73 H35         9.3643    0.5983    4.7254 H         1 <0>         0.0598
     74 H36         9.5632    0.6200    2.2599 H         1 <0>         0.0857
     75 H37         9.8508    2.3930    2.2797 H         1 <0>         0.0403
@<TRIPOS>BOND
     1    1    2 1
     2    1   41 1
     3    1   42 1
     4    1   43 1
     5    2    3 1
     6    2   11 1
     7    2    4 1
     8    4    5 1
     9    4   44 1
    10    4   45 1
    11    5   10 ar
    12    5    6 ar
    13    6    7 ar
    14    6   46 1
    15    7    8 ar
    16    7   12 1
    17    8    9 ar
    18    8   47 1
    19    9   10 ar
    20    9   48 1
    21   10   11 1
    22   12   13 2
    23   12   14 1
    24   14   19 1
    25   14   15 2
    26   15   16 1
    27   15   40 1
    28   16   17 2
    29   16   18 am
    30   18   19 1
    31   18   31 1
    32   19   20 1
    33   19   21 1
    34   21   26 ar
    35   21   22 ar
    36   22   23 ar
    37   22   49 1
    38   23   24 ar
    39   23   50 1
    40   24   25 ar
    41   24   27 1
    42   25   26 ar
    43   25   51 1
    44   26   52 1
    45   27   28 1
    46   27   29 1
    47   27   30 1
    48   28   53 1
    49   28   54 1
    50   28   55 1
    51   29   56 1
    52   29   57 1
    53   29   58 1
    54   30   59 1
    55   30   60 1
    56   30   61 1
    57   31   32 1
    58   31   62 1
    59   31   63 1
    60   32   33 1
    61   32   64 1
    62   32   65 1
    63   33   34 1
    64   33   66 1
    65   33   67 1
    66   34   39 1
    67   34   35 1
    68   35   36 1
    69   35   68 1
    70   35   69 1
    71   36   37 1
    72   36   70 1
    73   36   71 1
    74   37   38 1
    75   38   39 1
    76   38   72 1
    77   38   73 1
    78   39   74 1
    79   39   75 1
@<TRIPOS>MOLECULE
ZINC35483655
   48    52     0     0     0
SMALL
USER_CHARGES

@<TRIPOS>ATOM
      1 C1          2.3962   -3.1039    9.6512 C.3       1 <0>        -0.1020
      2 C2          2.0254   -4.0771    8.5620 C.2       1 <0>        -0.0123
      3 C3          2.2966   -5.4011    8.7036 C.2       1 <0>        -0.1457
      4 C4          1.9450   -6.2984    7.6802 C.2       1 <0>        -0.1372
      5 C5          1.3412   -5.8513    6.5604 C.2       1 <0>         0.0364
      6 N1          1.0616   -4.5225    6.4027 N.pl3     1 <0>        -0.3651
      7 C6          1.3875   -3.6227    7.3870 C.2       1 <0>         0.1783
      8 N2          1.0103   -2.4164    6.9973 N.2       1 <0>        -0.3393
      9 C7          0.4391   -2.5044    5.7822 C.2       1 <0>         0.0058
     10 C8          0.4720   -3.8253    5.3920 C.2       1 <0>        -0.0203
     11 C9         -0.0573   -4.3928    4.1002 C.3       1 <0>        -0.0713
     12 C10        -0.1140   -1.3818    4.9999 C.2       1 <0>         0.5149
     13 C11        -0.2118   -0.0482    5.6001 C.2       1 <0>        -0.4760
     14 C12        -0.5659    1.2368    4.8884 C.3       1 <0>         0.2691
     15 H1         -1.5642    1.1635    4.4569 H         1 <0>         0.0895
     16 N3         -0.5333    2.2913    5.9087 N.am      1 <0>        -0.5068
     17 C13        -0.2035    1.7215    7.0820 C.2       1 <0>         0.5058
     18 O1         -0.0885    2.3141    8.1368 O.2       1 <0>        -0.4904
     19 C14        -0.0080    0.2693    6.9005 C.2       1 <0>         0.2855
     20 O2          0.3251   -0.6051    7.8781 O.3       1 <0>        -0.5370
     21 C15        -0.7962    3.6379    5.7001 C.2       1 <0>         0.3019
     22 N4         -1.1272    4.2423    4.5790 N.2       1 <0>        -0.5571
     23 C16        -1.3465    5.5431    4.5445 C.2       1 <0>         0.0694
     24 C17        -1.2152    6.2215    5.7115 C.2       1 <0>        -0.2881
     25 S1         -0.7763    4.8932    6.8209 S.3       1 <0>         0.1518
     26 C18         0.4456    1.5277    3.8099 C.ar      1 <0>        -0.0360
     27 C19         1.6823    2.0476    4.1447 C.ar      1 <0>        -0.0845
     28 C20         2.6107    2.3153    3.1565 C.ar      1 <0>        -0.1019
     29 C21         2.3031    2.0625    1.8316 C.ar      1 <0>        -0.0366
     30 C22         1.0651    1.5415    1.4965 C.ar      1 <0>        -0.0270
     31 C23         0.1388    1.2693    2.4874 C.ar      1 <0>        -0.0642
     32 Cl1         0.6773    1.2243   -0.1657 Cl        1 <0>        -0.0616
     33 Cl2         3.4688    2.3991    0.5899 Cl        1 <0>        -0.0664
     34 O3         -0.4890   -1.5635    3.8562 O.2       1 <0>        -0.5209
     35 H2          1.5366   -2.9414   10.3014 H         1 <0>         0.0767
     36 H3          3.2221   -3.5098   10.2354 H         1 <0>         0.0625
     37 H4          2.6981   -2.1565    9.2046 H         1 <0>         0.0838
     38 H5          2.7808   -5.7626    9.5988 H         1 <0>         0.1331
     39 H6          2.1599   -7.3510    7.7911 H         1 <0>         0.1416
     40 H7          1.0763   -6.5497    5.7804 H         1 <0>         0.1522
     41 H8         -1.1036   -4.6709    4.2271 H         1 <0>         0.0686
     42 H9          0.0265   -3.6436    3.3129 H         1 <0>         0.1031
     43 H10         0.5222   -5.2743    3.8261 H         1 <0>         0.0540
     44 H11        -1.6181    6.0452    3.6276 H         1 <0>         0.1692
     45 H12        -1.3448    7.2743    5.9147 H         1 <0>         0.1910
     46 H13         1.9227    2.2451    5.1789 H         1 <0>         0.1246
     47 H14         3.5762    2.7221    3.4186 H         1 <0>         0.1357
     48 H15        -0.8257    0.8590    2.2271 H         1 <0>         0.1434
@<TRIPOS>BOND
     1    1    2 1
     2    1   35 1
     3    1   36 1
     4    1   37 1
     5    2    7 1
     6    2    3 2
     7    3    4 1
     8    3   38 1
     9    4    5 2
    10    4   39 1
    11    5    6 1
    12    5   40 1
    13    6   10 1
    14    6    7 1
    15    7    8 2
    16    8    9 1
    17    9   10 2
    18    9   12 1
    19   10   11 1
    20   11   41 1
    21   11   42 1
    22   11   43 1
    23   12   13 1
    24   12   34 2
    25   13   19 2
    26   13   14 1
    27   14   16 1
    28   14   26 1
    29   14   15 1
    30   16   21 1
    31   16   17 am
    32   17   18 2
    33   17   19 1
    34   19   20 1
    35   21   25 1
    36   21   22 2
    37   22   23 1
    38   23   24 2
    39   23   44 1
    40   24   25 1
    41   24   45 1
    42   26   31 ar
    43   26   27 ar
    44   27   28 ar
    45   27   46 1
    46   28   29 ar
    47   28   47 1
    48   29   30 ar
    49   29   33 1
    50   30   31 ar
    51   30   32 1
    52   31   48 1
@<TRIPOS>MOLECULE
ZINC39999904
   42    45     0     0     0
SMALL
USER_CHARGES

@<TRIPOS>ATOM
      1 C1         -0.1363    1.5383    0.0852 C.3       1 <0>        -0.1378
      2 C2         -0.0941    0.0093    0.0488 C.3       1 <0>        -0.1141
      3 S1         -1.7838   -0.6446    0.1389 S.3       1 <0>         0.0294
      4 C3         -1.5678   -2.3925    0.0869 C.2       1 <0>        -0.0253
      5 N1         -0.4571   -3.1120    0.0082 N.2       1 <0>        -0.2499
      6 N2         -0.4801   -4.3727   -0.0188 N.2       1 <0>        -0.3083
      7 C4         -1.6136   -5.0547    0.0296 C.2       1 <0>         0.3214
      8 S2         -2.7852   -3.7046    0.1333 S.3       1 <0>         0.0881
      9 N3         -1.8318   -6.4271    0.0106 N.am      1 <0>        -0.5009
     10 C5         -0.7968   -7.4649   -0.0651 C.3       1 <0>         0.3112
     11 H1         -0.1340   -7.3970    0.7975 H         1 <0>         0.1030
     12 C6         -1.5264   -8.7880   -0.0569 C.2       1 <0>        -0.4908
     13 C7         -2.8489   -8.5041    0.0170 C.2       1 <0>         0.2791
     14 C8         -3.0286   -7.0391    0.0643 C.2       1 <0>         0.5125
     15 O1         -4.1000   -6.4700    0.1385 O.2       1 <0>        -0.4803
     16 O2         -3.8463   -9.4176    0.0479 O.3       1 <0>        -0.6251
     17 C9         -0.9206  -10.1205   -0.1179 C.2       1 <0>         0.5068
     18 O3         -1.1103  -10.8314   -1.0871 O.2       1 <0>        -0.4555
     19 C10        -0.0788  -10.6015    0.9980 C.ar      1 <0>        -0.1210
     20 C11         0.0407   -9.8421    2.1642 C.ar      1 <0>        -0.0606
     21 C12         0.8275  -10.2963    3.2014 C.ar      1 <0>        -0.1057
     22 C13         1.4985  -11.5027    3.0887 C.ar      1 <0>        -0.0747
     23 C14         1.3845  -12.2602    1.9347 C.ar      1 <0>        -0.1055
     24 C15         0.5959  -11.8201    0.8928 C.ar      1 <0>        -0.0670
     25 Br1         2.5754  -12.1180    4.5161 Br        1 <0>        -0.0596
     26 C16        -0.0056   -7.3158   -1.3390 C.2       1 <0>        -0.1213
     27 C17         1.3344   -7.3970   -1.5260 C.2       1 <0>        -0.1525
     28 C18         1.8452   -7.2252   -2.7989 C.2       1 <0>        -0.1480
     29 C19         0.9910   -6.9806   -3.8225 C.2       1 <0>        -0.1909
     30 S3         -0.5907   -6.9942   -2.9947 S.3       1 <0>         0.0514
     31 H2          0.8790    1.9312    0.0310 H         1 <0>         0.0790
     32 H3         -0.7139    1.9061   -0.7628 H         1 <0>         0.0667
     33 H4         -0.6040    1.8669    1.0133 H         1 <0>         0.0667
     34 H5          0.3736   -0.3193   -0.8793 H         1 <0>         0.0954
     35 H6          0.4835   -0.3585    0.8968 H         1 <0>         0.0955
     36 H7         -0.4817   -8.9011    2.2531 H         1 <0>         0.1417
     37 H8          0.9210   -9.7099    4.1035 H         1 <0>         0.1344
     38 H9          1.9108  -13.1997    1.8526 H         1 <0>         0.1335
     39 H10         0.5037  -12.4140   -0.0045 H         1 <0>         0.1402
     40 H11         1.9932   -7.5926   -0.6929 H         1 <0>         0.1305
     41 H12         2.9091   -7.2846   -2.9751 H         1 <0>         0.1284
     42 H13         1.2101   -6.8226   -4.8682 H         1 <0>         0.1798
@<TRIPOS>BOND
     1    1    2 1
     2    1   31 1
     3    1   32 1
     4    1   33 1
     5    2    3 1
     6    2   34 1
     7    2   35 1
     8    3    4 1
     9    4    8 1
    10    4    5 2
    11    5    6 1
    12    6    7 2
    13    7    8 1
    14    7    9 1
    15    9   14 am
    16    9   10 1
    17   10   11 1
    18   10   12 1
    19   10   26 1
    20   12   13 2
    21   12   17 1
    22   13   14 1
    23   13   16 1
    24   14   15 2
    25   17   18 2
    26   17   19 1
    27   19   24 ar
    28   19   20 ar
    29   20   21 ar
    30   20   36 1
    31   21   22 ar
    32   21   37 1
    33   22   23 ar
    34   22   25 1
    35   23   24 ar
    36   23   38 1
    37   24   39 1
    38   26   30 1
    39   26   27 2
    40   27   28 1
    41   27   40 1
    42   28   29 2
    43   28   41 1
    44   29   30 1
    45   29   42 1
@<TRIPOS>MOLECULE
ZINC59198134
   41    43     0     0     0
SMALL
USER_CHARGES

@<TRIPOS>ATOM
      1 C1          0.3606    0.9080    5.4597 C.2       1 <0>        -0.1708
      2 C2          1.3653    0.9913    4.6232 C.2       1 <0>        -0.1542
      3 C3          2.3396   -0.1516    4.4995 C.3       1 <0>         0.0834
      4 O1          2.5971   -0.4107    3.1180 O.3       1 <0>        -0.2968
      5 C4          3.4598   -1.4170    2.8305 C.ar      1 <0>         0.1736
      6 C5          4.0433   -2.1456    3.8630 C.ar      1 <0>        -0.2138
      7 C6          4.9124   -3.1598    3.5807 C.ar      1 <0>         0.0288
      8 C7          5.2177   -3.4677    2.2450 C.ar      1 <0>        -0.1194
      9 C8          4.6260   -2.7292    1.2078 C.ar      1 <0>        -0.0232
     10 C9          3.7536   -1.7205    1.5035 C.ar      1 <0>        -0.1375
     11 Br1         2.9487   -0.7296    0.1085 Br        1 <0>        -0.0447
     12 C10         6.1476   -4.5516    1.9360 C.2       1 <0>         0.0627
     13 C11         6.0673   -5.7510    2.6254 C.2       1 <0>        -0.2423
     14 C12         7.1306   -6.7640    2.5328 C.2       1 <0>         0.4977
     15 O2          8.2221   -6.5512    1.7682 O.3       1 <0>        -0.6316
     16 N1          6.9921   -7.8871    3.2161 N.2       1 <0>        -0.6587
     17 C13         5.9271   -8.1241    3.9783 C.2       1 <0>         0.6680
     18 O3          5.8726   -9.1831    4.5778 O.2       1 <0>        -0.5605
     19 N2          4.9109   -7.2612    4.1231 N.am      1 <0>        -0.5529
     20 C14         4.9140   -6.0679    3.4910 C.2       1 <0>         0.5624
     21 O4          3.9947   -5.2823    3.6262 O.2       1 <0>        -0.5050
     22 C15         3.8309   -7.6007    4.9492 C.ar      1 <0>         0.1744
     23 C16         2.6835   -8.1571    4.4000 C.ar      1 <0>        -0.0963
     24 C17         1.6207   -8.4913    5.2163 C.ar      1 <0>        -0.0819
     25 C18         1.6988   -8.2719    6.5802 C.ar      1 <0>        -0.0912
     26 C19         2.8409   -7.7171    7.1299 C.ar      1 <0>        -0.0825
     27 C20         3.9087   -7.3865    6.3187 C.ar      1 <0>        -0.0955
     28 Br2         0.2417   -8.7307    7.6949 Br        1 <0>        -0.0587
     29 H1          0.2306    0.0201    6.0607 H         1 <0>         0.1002
     30 H2         -0.3351    1.7289    5.5516 H         1 <0>         0.1077
     31 H3          1.4953    1.8792    4.0222 H         1 <0>         0.1204
     32 H4          3.2719    0.1099    5.0000 H         1 <0>         0.0751
     33 H5          1.9157   -1.0423    4.9633 H         1 <0>         0.0715
     34 H6          3.8081   -1.9078    4.8899 H         1 <0>         0.1345
     35 H7          5.3646   -3.7240    4.3830 H         1 <0>         0.1260
     36 H8          4.8569   -2.9607    0.1785 H         1 <0>         0.1421
     37 H9          6.8974   -4.4180    1.1703 H         1 <0>         0.1564
     38 H10         2.6219   -8.3282    3.3354 H         1 <0>         0.1309
     39 H11         0.7278   -8.9238    4.7897 H         1 <0>         0.1354
     40 H12         2.8992   -7.5466    8.1948 H         1 <0>         0.1354
     41 H13         4.8018   -6.9579    6.7489 H         1 <0>         0.1313
@<TRIPOS>BOND
     1    1    2 2
     2    1   29 1
     3    1   30 1
     4    2    3 1
     5    2   31 1
     6    3    4 1
     7    3   32 1
     8    3   33 1
     9    4    5 1
    10    5   10 ar
    11    5    6 ar
    12    6    7 ar
    13    6   34 1
    14    7    8 ar
    15    7   35 1
    16    8    9 ar
    17    8   12 1
    18    9   10 ar
    19    9   36 1
    20   10   11 1
    21   12   13 2
    22   12   37 1
    23   13   20 1
    24   13   14 1
    25   14   15 1
    26   14   16 2
    27   16   17 1
    28   17   18 2
    29   17   19 am
    30   19   20 am
    31   19   22 1
    32   20   21 2
    33   22   27 ar
    34   22   23 ar
    35   23   24 ar
    36   23   38 1
    37   24   25 ar
    38   24   39 1
    39   25   26 ar
    40   25   28 1
    41   26   27 ar
    42   26   40 1
    43   27   41 1
@<TRIPOS>MOLECULE
ZINC09012275
   53    57     0     0     0
SMALL
USER_CHARGES

@<TRIPOS>ATOM
      1 C1         -0.8390    1.4334   -0.0272 C.3       1 <0>        -0.0760
      2 C2         -0.4426   -0.0205   -0.0423 C.2       1 <0>        -0.0089
      3 C3         -0.5452   -0.8430   -1.0984 C.2       1 <0>        -0.0701
      4 C4         -0.0446   -2.1531   -0.6552 C.2       1 <0>        -0.1611
      5 C5          0.3246   -1.9881    0.6724 C.2       1 <0>         0.0700
      6 N1          0.0841   -0.7089    1.0165 N.pl3     1 <0>        -0.4040
      7 C6          0.3339   -0.1618    2.2791 C.ar      1 <0>         0.1570
      8 C7         -0.6364   -0.1987    3.2568 C.ar      1 <0>        -0.1057
      9 C8         -0.3986    0.3425    4.5166 C.ar      1 <0>        -0.0731
     10 C9          0.7967    0.9227    4.8184 C.ar      1 <0>        -0.0753
     11 C10         1.8131    0.9802    3.8487 C.ar      1 <0>        -0.0246
     12 C11         1.5836    0.4274    2.5646 C.ar      1 <0>        -0.0412
     13 C12         2.6011    0.4811    1.5989 C.ar      1 <0>        -0.0889
     14 C13         3.7950    1.0574    1.9093 C.ar      1 <0>        -0.1091
     15 C14         4.0236    1.5963    3.1738 C.ar      1 <0>        -0.0958
     16 C15         3.0560    1.5727    4.1308 C.ar      1 <0>        -0.1188
     17 Br1         1.0881    1.6502    6.5393 Br        1 <0>        -0.0398
     18 C16         0.8989   -3.0534    1.5704 C.3       1 <0>        -0.0879
     19 C17         0.0423   -3.3376   -1.4238 C.2       1 <0>         0.0938
     20 C18         0.5427   -3.2904   -2.7154 C.2       1 <0>        -0.2880
     21 C19         1.1759   -2.0693   -3.2548 C.2       1 <0>         0.5379
     22 N2          1.6390   -2.0948   -4.5153 N.2       1 <0>        -0.6750
     23 C20         1.5439   -3.1621   -5.2680 C.2       1 <0>         0.6343
     24 O1          2.0346   -3.1016   -6.5212 O.3       1 <0>        -0.6558
     25 N3          0.9791   -4.3266   -4.8567 N.am      1 <0>        -0.5657
     26 C21         0.4732   -4.4574   -3.6118 C.2       1 <0>         0.5667
     27 O2         -0.0278   -5.5038   -3.2436 O.2       1 <0>        -0.5365
     28 C22         0.9233   -5.4638   -5.7787 C.3       1 <0>         0.1863
     29 C23         2.1675   -6.2994   -5.6217 C.2       1 <0>        -0.0113
     30 C24         2.3178   -7.3357   -4.7773 C.2       1 <0>        -0.2012
     31 C25         3.6320   -7.8246   -4.9587 C.2       1 <0>        -0.2225
     32 C26         4.2061   -7.0578   -5.9031 C.2       1 <0>        -0.0459
     33 O3          3.3125   -6.1393   -6.3051 O.3       1 <0>        -0.1560
     34 O4          1.2753   -1.0633   -2.5726 O.2       1 <0>        -0.5256
     35 H1          0.0126    2.0453   -0.3248 H         1 <0>         0.0673
     36 H2         -1.6621    1.5929   -0.7238 H         1 <0>         0.0778
     37 H3         -1.1542    1.7136    0.9779 H         1 <0>         0.0543
     38 H4         -0.9213   -0.5924   -2.0793 H         1 <0>         0.1420
     39 H5         -1.5927   -0.6527    3.0428 H         1 <0>         0.1406
     40 H6         -1.1742    0.3024    5.2670 H         1 <0>         0.1410
     41 H7          2.4378    0.0670    0.6149 H         1 <0>         0.1398
     42 H8          4.5762    1.0971    1.1647 H         1 <0>         0.1308
     43 H9          4.9796    2.0476    3.3949 H         1 <0>         0.1290
     44 H10         3.2469    1.9952    5.1062 H         1 <0>         0.1362
     45 H11         1.9860   -3.0483    1.4909 H         1 <0>         0.0744
     46 H12         0.6091   -2.8539    2.6021 H         1 <0>         0.0638
     47 H13         0.5170   -4.0284    1.2677 H         1 <0>         0.0839
     48 H14        -0.2813   -4.2786   -1.0041 H         1 <0>         0.1277
     49 H15         0.0468   -6.0714   -5.5535 H         1 <0>         0.1101
     50 H16         0.8583   -5.0979   -6.8034 H         1 <0>         0.1102
     51 H17         1.5770   -7.7201   -4.0919 H         1 <0>         0.1480
     52 H18         4.0875   -8.6543   -4.4386 H         1 <0>         0.1433
     53 H19         5.2135   -7.1651   -6.2774 H         1 <0>         0.1975
@<TRIPOS>BOND
     1    1    2 1
     2    1   35 1
     3    1   36 1
     4    1   37 1
     5    2    6 1
     6    2    3 2
     7    3    4 1
     8    3   38 1
     9    4    5 2
    10    4   19 1
    11    5    6 1
    12    5   18 1
    13    6    7 1
    14    7   12 ar
    15    7    8 ar
    16    8    9 ar
    17    8   39 1
    18    9   10 ar
    19    9   40 1
    20   10   11 ar
    21   10   17 1
    22   11   16 ar
    23   11   12 ar
    24   12   13 ar
    25   13   14 ar
    26   13   41 1
    27   14   15 ar
    28   14   42 1
    29   15   16 ar
    30   15   43 1
    31   16   44 1
    32   18   45 1
    33   18   46 1
    34   18   47 1
    35   19   20 2
    36   19   48 1
    37   20   26 1
    38   20   21 1
    39   21   22 1
    40   21   34 2
    41   22   23 2
    42   23   24 1
    43   23   25 1
    44   25   26 am
    45   25   28 1
    46   26   27 2
    47   28   29 1
    48   28   49 1
    49   28   50 1
    50   29   33 1
    51   29   30 2
    52   30   31 1
    53   30   51 1
    54   31   32 2
    55   31   52 1
    56   32   33 1
    57   32   53 1
@<TRIPOS>MOLECULE
ZINC20309081
   56    59     0     0     0
SMALL
USER_CHARGES
(5S)-4-(5-bromo-2-hydroxy-benzoyl)-5-(2-fluorophenyl)-3-hydroxy-1-(3-morpholinopropyl)-5H-pyrrol-2-one
@<TRIPOS>ATOM
      1 C1          5.1276    2.9834    3.3852 C.ar      1 <0>        -0.1308
      2 C2          3.7694    3.1793    3.5547 C.ar      1 <0>        -0.1040
      3 C3          2.8895    2.8286    2.5487 C.ar      1 <0>        -0.1553
      4 C4          3.3689    2.2865    1.3680 C.ar      1 <0>         0.1025
      5 C5          4.7285    2.0864    1.2014 C.ar      1 <0>        -0.1031
      6 C6          5.6068    2.4375    2.2093 C.ar      1 <0>        -0.0782
      7 C7          5.2514    1.4917   -0.0808 C.3       1 <0>         0.2669
      8 H1          4.6307    1.8600   -0.9109 H         1 <0>         0.0717
      9 C8          5.2487   -0.0166    0.0071 C.2       1 <0>        -0.5005
     10 C9          6.5318   -0.4189   -0.1438 C.2       1 <0>         0.2648
     11 C10         7.3948    0.7675   -0.3234 C.2       1 <0>         0.5140
     12 O1          8.5988    0.7361   -0.4835 O.2       1 <0>        -0.5331
     13 N1          6.6501    1.8873   -0.2833 N.am      1 <0>        -0.6115
     14 C11         7.1467    3.2584   -0.4236 C.3       1 <0>         0.1349
     15 C12         7.1282    3.6589   -1.9001 C.3       1 <0>        -0.1355
     16 C13         7.6468    5.0909   -2.0466 C.3       1 <0>         0.0597
     17 N2          7.6291    5.4755   -3.4642 N.3       1 <0>        -0.5347
     18 C14         8.5937    4.6803   -4.2379 C.3       1 <0>         0.0121
     19 C15         8.5001    5.0707   -5.7153 C.3       1 <0>         0.0622
     20 O2          8.7279    6.4764   -5.8472 O.3       1 <0>        -0.3879
     21 C16         7.8059    7.2810   -5.1070 C.3       1 <0>         0.0624
     22 C17         7.8925    6.9130   -3.6235 C.3       1 <0>         0.0167
     23 O3          6.9573   -1.7032   -0.1317 O.3       1 <0>        -0.6519
     24 C18         4.0799   -0.8788    0.2105 C.2       1 <0>         0.5068
     25 O4          3.9698   -1.5224    1.2375 O.2       1 <0>        -0.4539
     26 C19         3.0375   -0.9661   -0.8302 C.ar      1 <0>        -0.1719
     27 C20         3.1232   -0.1746   -1.9792 C.ar      1 <0>         0.0095
     28 C21         2.1462   -0.2614   -2.9475 C.ar      1 <0>        -0.1505
     29 C22         1.0779   -1.1309   -2.7873 C.ar      1 <0>        -0.0352
     30 C23         0.9814   -1.9182   -1.6571 C.ar      1 <0>        -0.2299
     31 C24         1.9552   -1.8439   -0.6726 C.ar      1 <0>         0.2139
     32 O5          1.8611   -2.6168    0.4384 O.3       1 <0>        -0.4679
     33 Br1         2.2632    0.8098   -4.5014 Br        1 <0>        -0.0608
     34 F1          2.5099    1.9488    0.3814 F         1 <0>        -0.1354
     35 H2          5.8146    3.2575    4.1722 H         1 <0>         0.1237
     36 H3          3.3961    3.6063    4.4738 H         1 <0>         0.1257
     37 H4          1.8286    2.9814    2.6814 H         1 <0>         0.1292
     38 H5          6.6679    2.2850    2.0780 H         1 <0>         0.1272
     39 H6          6.5032    3.9419    0.1498 H         1 <0>         0.0766
     40 H7          8.1763    3.3165   -0.0408 H         1 <0>         0.0785
     41 H8          7.7717    2.9754   -2.4735 H         1 <0>         0.0697
     42 H9          6.0986    3.6008   -2.2829 H         1 <0>         0.0765
     43 H10         7.0033    5.7744   -1.4732 H         1 <0>         0.0775
     44 H11         8.6764    5.1490   -1.6637 H         1 <0>         0.0369
     45 H12         9.6110    4.8769   -3.8684 H         1 <0>         0.0427
     46 H13         8.3625    3.6109   -4.1238 H         1 <0>         0.0937
     47 H14         9.2592    4.5189   -6.2891 H         1 <0>         0.0988
     48 H15         7.4991    4.8221   -6.0976 H         1 <0>         0.0610
     49 H16         8.0587    8.3434   -5.2386 H         1 <0>         0.0965
     50 H17         6.7846    7.0991   -5.4729 H         1 <0>         0.0598
     51 H18         7.1450    7.4877   -3.0570 H         1 <0>         0.0860
     52 H19         8.8985    7.1457   -3.2442 H         1 <0>         0.0412
     53 H20         3.9535    0.5039   -2.1079 H         1 <0>         0.1452
     54 H21         0.3191   -1.1959   -3.5531 H         1 <0>         0.1309
     55 H22         0.1461   -2.5926   -1.5396 H         1 <0>         0.1344
     56 H23         1.0112   -3.3045    0.5596 H         1 <0>         0.4222
@<TRIPOS>BOND
     1    1    6 ar
     2    1    2 ar
     3    1   35 1
     4    2    3 ar
     5    2   36 1
     6    3    4 ar
     7    3   37 1
     8    4    5 ar
     9    4   34 1
    10    5    6 ar
    11    5    7 1
    12    6   38 1
    13    7    8 1
    14    7   13 1
    15    7    9 1
    16    9   10 2
    17    9   24 1
    18   10   11 1
    19   10   23 1
    20   11   12 2
    21   11   13 am
    22   13   14 1
    23   14   15 1
    24   14   39 1
    25   14   40 1
    26   15   16 1
    27   15   41 1
    28   15   42 1
    29   16   17 1
    30   16   43 1
    31   16   44 1
    32   17   22 1
    33   17   18 1
    34   18   19 1
    35   18   45 1
    36   18   46 1
    37   19   20 1
    38   19   47 1
    39   19   48 1
    40   20   21 1
    41   21   22 1
    42   21   49 1
    43   21   50 1
    44   22   51 1
    45   22   52 1
    46   24   25 2
    47   24   26 1
    48   26   31 ar
    49   26   27 ar
    50   27   28 ar
    51   27   53 1
    52   28   29 ar
    53   28   33 1
    54   29   30 ar
    55   29   54 1
    56   30   31 ar
    57   30   55 1
    58   31   32 1
    59   32   56 1
@<TRIPOS>MOLECULE
ZINC08738364
   69    73     0     0     0
SMALL
USER_CHARGES

@<TRIPOS>ATOM
      1 C1         -3.3597    1.4344    1.4357 C.3       1 <0>        -0.1526
      2 C2         -3.6203   -0.0384    1.1137 C.3       1 <0>        -0.1175
      3 C3         -2.3337   -0.6821    0.5930 C.3       1 <0>        -0.0480
      4 H1         -1.5329   -0.5306    1.3168 H         1 <0>         0.0754
      5 C4         -1.9448   -0.0391   -0.7398 C.3       1 <0>        -0.1447
      6 C5         -2.5564   -2.1589    0.3921 C.ar      1 <0>        -0.0852
      7 C6         -3.5257   -2.5966   -0.4916 C.ar      1 <0>        -0.1074
      8 C7         -3.7322   -3.9495   -0.6779 C.ar      1 <0>        -0.1017
      9 C8         -2.9654   -4.8704    0.0233 C.ar      1 <0>         0.1521
     10 C9         -1.9929   -4.4278    0.9100 C.ar      1 <0>        -0.0947
     11 C10        -1.7873   -3.0736    1.0877 C.ar      1 <0>        -0.1106
     12 N1         -3.1728   -6.2435   -0.1631 N.am      1 <0>        -0.5505
     13 C11        -2.8319   -6.8131   -1.3389 C.2       1 <0>         0.5673
     14 O1         -2.3469   -6.1535   -2.2397 O.2       1 <0>        -0.5265
     15 C12        -3.0658   -8.2594   -1.4957 C.2       1 <0>        -0.2907
     16 C13        -2.7424   -8.9248   -2.6755 C.2       1 <0>         0.1246
     17 C14        -2.7845  -10.3310   -2.7247 C.2       1 <0>        -0.2219
     18 C15        -2.2758  -11.2136   -1.7848 C.2       1 <0>         0.2243
     19 N2         -2.5083  -12.4765   -2.1822 N.pl3     1 <0>        -0.4636
     20 C16        -3.1753  -12.4958   -3.3917 C.ar      1 <0>         0.0778
     21 C17        -3.3857  -11.1654   -3.7856 C.ar      1 <0>        -0.0514
     22 C18        -4.0476  -10.8846   -4.9760 C.ar      1 <0>        -0.0866
     23 C19        -4.4999  -11.9201   -5.7664 C.ar      1 <0>        -0.1380
     24 C20        -4.2970  -13.2354   -5.3778 C.ar      1 <0>        -0.1203
     25 C21        -3.6344  -13.5268   -4.2045 C.ar      1 <0>        -0.1176
     26 C22        -2.1081  -13.6708   -1.4341 C.3       1 <0>         0.1119
     27 C23        -0.7605  -14.1723   -1.9568 C.3       1 <0>        -0.1382
     28 C24        -0.3425  -15.4196   -1.1755 C.3       1 <0>         0.0638
     29 O2          0.9162  -15.8879   -1.6638 O.3       1 <0>        -0.3130
     30 C25         1.4334  -16.9968   -1.0724 C.ar      1 <0>         0.1320
     31 C26         0.7409  -17.6247   -0.0473 C.ar      1 <0>        -0.2097
     32 C27         1.2686  -18.7520    0.5519 C.ar      1 <0>        -0.0800
     33 C28         2.4860  -19.2545    0.1310 C.ar      1 <0>        -0.1614
     34 C29         3.1784  -18.6303   -0.8902 C.ar      1 <0>        -0.0814
     35 C30         2.6521  -17.5062   -1.4968 C.ar      1 <0>        -0.1539
     36 C31        -3.6546   -8.9679   -0.3523 C.2       1 <0>         0.5038
     37 O3         -3.9004  -10.2939   -0.4141 O.3       1 <0>        -0.6361
     38 N3         -3.9385   -8.2773    0.7402 N.2       1 <0>        -0.6663
     39 C32        -3.7017   -6.9717    0.8312 C.2       1 <0>         0.6686
     40 O4         -3.9856   -6.4057    1.8721 O.2       1 <0>        -0.5678
     41 H2         -4.2763    1.8930    1.8066 H         1 <0>         0.0518
     42 H3         -2.5828    1.5080    2.1967 H         1 <0>         0.0525
     43 H4         -3.0341    1.9516    0.5331 H         1 <0>         0.0554
     44 H5         -3.9458   -0.5556    2.0163 H         1 <0>         0.0645
     45 H6         -4.3971   -0.1120    0.3526 H         1 <0>         0.0635
     46 H7         -2.7456   -0.1906   -1.4636 H         1 <0>         0.0563
     47 H8         -1.7837    1.0291   -0.5945 H         1 <0>         0.0568
     48 H9         -1.0282   -0.4976   -1.1107 H         1 <0>         0.0553
     49 H10        -4.1221   -1.8798   -1.0365 H         1 <0>         0.1212
     50 H11        -4.4897   -4.2907   -1.3680 H         1 <0>         0.1187
     51 H12        -1.3951   -5.1418    1.4571 H         1 <0>         0.1205
     52 H13        -1.0280   -2.7288    1.7740 H         1 <0>         0.1218
     53 H14        -2.4592   -8.3620   -3.5527 H         1 <0>         0.1273
     54 H15        -1.7700  -10.9303   -0.8736 H         1 <0>         0.1734
     55 H16        -4.2070   -9.8605   -5.2798 H         1 <0>         0.1200
     56 H17        -5.0143  -11.7058   -6.6915 H         1 <0>         0.1188
     57 H18        -4.6553  -14.0394   -6.0036 H         1 <0>         0.1196
     58 H19        -3.4829  -14.5549   -3.9105 H         1 <0>         0.1135
     59 H20        -2.0184  -13.4238   -0.3763 H         1 <0>         0.0995
     60 H21        -2.8602  -14.4492   -1.5629 H         1 <0>         0.0906
     61 H22        -0.8502  -14.4193   -3.0147 H         1 <0>         0.0827
     62 H23        -0.0084  -13.3939   -1.8280 H         1 <0>         0.0836
     63 H24        -0.2527  -15.1725   -0.1177 H         1 <0>         0.0682
     64 H25        -1.0946  -16.1980   -1.3043 H         1 <0>         0.0662
     65 H26        -0.2097  -17.2322    0.2823 H         1 <0>         0.1286
     66 H27         0.7299  -19.2412    1.3500 H         1 <0>         0.1246
     67 H28         2.8970  -20.1357    0.6009 H         1 <0>         0.1227
     68 H29         4.1293  -19.0245   -1.2169 H         1 <0>         0.1283
     69 H30         3.1911  -17.0216   -2.2973 H         1 <0>         0.1302
@<TRIPOS>BOND
     1    1    2 1
     2    1   41 1
     3    1   42 1
     4    1   43 1
     5    2    3 1
     6    2   44 1
     7    2   45 1
     8    3    4 1
     9    3    5 1
    10    3    6 1
    11    5   46 1
    12    5   47 1
    13    5   48 1
    14    6   11 ar
    15    6    7 ar
    16    7    8 ar
    17    7   49 1
    18    8    9 ar
    19    8   50 1
    20    9   10 ar
    21    9   12 1
    22   10   11 ar
    23   10   51 1
    24   11   52 1
    25   12   39 am
    26   12   13 am
    27   13   14 2
    28   13   15 1
    29   15   16 2
    30   15   36 1
    31   16   17 1
    32   16   53 1
    33   17   21 1
    34   17   18 2
    35   18   19 1
    36   18   54 1
    37   19   20 1
    38   19   26 1
    39   20   25 ar
    40   20   21 ar
    41   21   22 ar
    42   22   23 ar
    43   22   55 1
    44   23   24 ar
    45   23   56 1
    46   24   25 ar
    47   24   57 1
    48   25   58 1
    49   26   27 1
    50   26   59 1
    51   26   60 1
    52   27   28 1
    53   27   61 1
    54   27   62 1
    55   28   29 1
    56   28   63 1
    57   28   64 1
    58   29   30 1
    59   30   35 ar
    60   30   31 ar
    61   31   32 ar
    62   31   65 1
    63   32   33 ar
    64   32   66 1
    65   33   34 ar
    66   33   67 1
    67   34   35 ar
    68   34   68 1
    69   35   69 1
    70   36   37 1
    71   36   38 2
    72   38   39 1
    73   39   40 2
@<TRIPOS>MOLECULE
ZINC36579789
   60    64     0     0     0
SMALL
USER_CHARGES

@<TRIPOS>ATOM
      1 C1          4.5667   -0.2105   -1.7555 C.3       1 <0>        -0.1098
      2 C2          3.8735   -1.5186   -1.4734 C.ar      1 <0>        -0.1202
      3 C3          3.6318   -2.4081   -2.5043 C.ar      1 <0>        -0.0855
      4 C4          2.9962   -3.6074   -2.2484 C.ar      1 <0>        -0.1981
      5 C5          2.6006   -3.9196   -0.9556 C.ar      1 <0>         0.1242
      6 C6          2.8446   -3.0259    0.0768 C.ar      1 <0>        -0.1110
      7 C7          3.4854   -1.8297   -0.1835 C.ar      1 <0>        -0.0852
      8 C8          2.4163   -3.3617    1.4820 C.3       1 <0>        -0.1062
      9 O1          1.9747   -5.0988   -0.7013 O.3       1 <0>        -0.3085
     10 C9          1.7560   -5.9700   -1.8127 C.3       1 <0>         0.0438
     11 C10         1.0449   -7.2376   -1.3349 C.3       1 <0>         0.1117
     12 N1          0.8207   -8.1308   -2.4742 N.pl3     1 <0>        -0.4602
     13 C11        -0.3124   -8.1773   -3.1960 C.2       1 <0>         0.1677
     14 C12        -0.1863   -9.1290   -4.1958 C.2       1 <0>        -0.2011
     15 C13         1.1667   -9.7033   -4.0450 C.ar      1 <0>        -0.0595
     16 C14         1.7472   -9.0349   -2.9560 C.ar      1 <0>         0.0806
     17 C15         3.0425   -9.3616   -2.5690 C.ar      1 <0>        -0.1213
     18 C16         3.7424  -10.3306   -3.2557 C.ar      1 <0>        -0.1109
     19 C17         3.1677  -10.9871   -4.3331 C.ar      1 <0>        -0.1370
     20 C18         1.8818  -10.6817   -4.7271 C.ar      1 <0>        -0.0787
     21 C19        -1.1515   -9.4779   -5.1591 C.2       1 <0>         0.1129
     22 C20        -2.4734   -9.6890   -4.7754 C.2       1 <0>        -0.2695
     23 C21        -3.5439   -9.8476   -5.7678 C.2       1 <0>         0.4998
     24 O2         -3.2737   -9.7926   -7.0893 O.3       1 <0>        -0.6387
     25 N2         -4.7795  -10.0460   -5.3374 N.2       1 <0>        -0.6643
     26 C22        -5.0745  -10.1051   -4.0420 C.2       1 <0>         0.6681
     27 N3         -4.1629   -9.9714   -3.0675 N.am      1 <0>        -0.5543
     28 C23        -2.8593   -9.7694   -3.3557 C.2       1 <0>         0.5676
     29 O3         -2.0308   -9.6528   -2.4715 O.2       1 <0>        -0.5171
     30 C24        -4.5690  -10.0483   -1.7282 C.ar      1 <0>         0.1671
     31 C25        -4.9759   -8.9025   -1.0581 C.ar      1 <0>        -0.0913
     32 C26        -5.3756   -8.9809    0.2616 C.ar      1 <0>        -0.1026
     33 C27        -5.3708  -10.2003    0.9159 C.ar      1 <0>        -0.0364
     34 C28        -4.9657  -11.3438    0.2501 C.ar      1 <0>        -0.1018
     35 C29        -4.5706  -11.2715   -1.0713 C.ar      1 <0>        -0.0898
     36 Cl1        -5.8732  -10.2955    2.5749 Cl        1 <0>        -0.0789
     37 O4         -6.2359  -10.2904   -3.7233 O.2       1 <0>        -0.5677
     38 H1          5.6443   -0.3418   -1.6573 H         1 <0>         0.0676
     39 H2          4.3311    0.1143   -2.7689 H         1 <0>         0.0648
     40 H3          4.2260    0.5420   -1.0443 H         1 <0>         0.0647
     41 H4          3.9399   -2.1646   -3.5103 H         1 <0>         0.1244
     42 H5          2.8070   -4.3014   -3.0539 H         1 <0>         0.1278
     43 H6          3.6792   -1.1353    0.6206 H         1 <0>         0.1282
     44 H7          3.2230   -3.8885    1.9917 H         1 <0>         0.0680
     45 H8          2.1851   -2.4428    2.0208 H         1 <0>         0.0647
     46 H9          1.5309   -3.9967    1.4500 H         1 <0>         0.0710
     47 H10         1.1380   -5.4644   -2.5546 H         1 <0>         0.0704
     48 H11         2.7140   -6.2371   -2.2590 H         1 <0>         0.0703
     49 H12         1.6629   -7.7432   -0.5929 H         1 <0>         0.1006
     50 H13         0.0870   -6.9705   -0.8886 H         1 <0>         0.1058
     51 H14        -1.1867   -7.5672   -3.0232 H         1 <0>         0.1705
     52 H15         3.4999   -8.8561   -1.7313 H         1 <0>         0.1157
     53 H16         4.7481  -10.5806   -2.9516 H         1 <0>         0.1226
     54 H17         3.7272  -11.7440   -4.8626 H         1 <0>         0.1225
     55 H18         1.4360  -11.1930   -5.5675 H         1 <0>         0.1253
     56 H19        -0.8668   -9.5819   -6.1957 H         1 <0>         0.1460
     57 H20        -4.9794   -7.9506   -1.5682 H         1 <0>         0.1304
     58 H21        -5.6918   -8.0898    0.7835 H         1 <0>         0.1350
     59 H22        -4.9629  -12.2943    0.7629 H         1 <0>         0.1351
     60 H23        -4.2591  -12.1649   -1.5919 H         1 <0>         0.1306
@<TRIPOS>BOND
     1    1    2 1
     2    1   38 1
     3    1   39 1
     4    1   40 1
     5    2    7 ar
     6    2    3 ar
     7    3    4 ar
     8    3   41 1
     9    4    5 ar
    10    4   42 1
    11    5    6 ar
    12    5    9 1
    13    6    7 ar
    14    6    8 1
    15    7   43 1
    16    8   44 1
    17    8   45 1
    18    8   46 1
    19    9   10 1
    20   10   11 1
    21   10   47 1
    22   10   48 1
    23   11   12 1
    24   11   49 1
    25   11   50 1
    26   12   16 1
    27   12   13 1
    28   13   14 2
    29   13   51 1
    30   14   15 1
    31   14   21 1
    32   15   20 ar
    33   15   16 ar
    34   16   17 ar
    35   17   18 ar
    36   17   52 1
    37   18   19 ar
    38   18   53 1
    39   19   20 ar
    40   19   54 1
    41   20   55 1
    42   21   22 2
    43   21   56 1
    44   22   28 1
    45   22   23 1
    46   23   24 1
    47   23   25 2
    48   25   26 1
    49   26   27 am
    50   26   37 2
    51   27   28 am
    52   27   30 1
    53   28   29 2
    54   30   35 ar
    55   30   31 ar
    56   31   32 ar
    57   31   57 1
    58   32   33 ar
    59   32   58 1
    60   33   34 ar
    61   33   36 1
    62   34   35 ar
    63   34   59 1
    64   35   60 1
@<TRIPOS>MOLECULE
ZINC40030258
   60    64     0     0     0
SMALL
USER_CHARGES

@<TRIPOS>ATOM
      1 C1          0.5980    1.1698   -0.2640 C.2       1 <0>        -0.1883
      2 C2          0.4443   -0.1297   -0.2039 C.2       1 <0>        -0.1600
      3 C3         -0.9372   -0.7206   -0.0888 C.3       1 <0>         0.1585
      4 N1         -1.1484   -1.6835   -1.1726 N.am      1 <0>        -0.6094
      5 C4         -1.6956   -1.3825   -2.5007 C.3       1 <0>         0.2668
      6 H1         -1.0572   -0.6643   -3.0151 H         1 <0>         0.0723
      7 C5         -1.7168   -2.6919   -3.2543 C.2       1 <0>        -0.5021
      8 C6         -1.2243   -3.6333   -2.4155 C.2       1 <0>         0.2589
      9 C7         -0.8695   -2.9989   -1.1283 C.2       1 <0>         0.5114
     10 O1         -0.3981   -3.5799   -0.1711 O.2       1 <0>        -0.5347
     11 O2         -1.0762   -4.9453   -2.7100 O.3       1 <0>        -0.6580
     12 C8         -2.1815   -2.9022   -4.6285 C.2       1 <0>         0.5138
     13 O3         -3.3737   -2.9395   -4.8685 O.2       1 <0>        -0.4677
     14 C9         -1.2014   -3.0690   -5.7230 C.ar      1 <0>        -0.0992
     15 C10         0.1647   -3.1291   -5.4377 C.ar      1 <0>        -0.0815
     16 C11         1.0760   -3.2847   -6.4613 C.ar      1 <0>        -0.1010
     17 C12         0.6418   -3.3812   -7.7710 C.ar      1 <0>        -0.1915
     18 C13        -0.7140   -3.3225   -8.0646 C.ar      1 <0>         0.1042
     19 C14        -1.6381   -3.1727   -7.0445 C.ar      1 <0>        -0.1019
     20 O4         -1.1346   -3.4179   -9.3534 O.3       1 <0>        -0.3096
     21 C15        -0.1273   -3.5770  -10.3545 C.3       1 <0>         0.1002
     22 C16        -0.7770   -3.6642  -11.7115 C.ar      1 <0>        -0.0867
     23 C17        -1.1559   -4.8933  -12.2184 C.ar      1 <0>        -0.0815
     24 C18        -1.7518   -4.9739  -13.4629 C.ar      1 <0>        -0.1137
     25 C19        -1.9691   -3.8242  -14.2013 C.ar      1 <0>        -0.0273
     26 C20        -1.5897   -2.5945  -13.6934 C.ar      1 <0>        -0.1143
     27 C21        -0.9990   -2.5146  -12.4464 C.ar      1 <0>        -0.0819
     28 Cl1        -2.7170   -3.9248  -15.7647 Cl        1 <0>        -0.0710
     29 C22        -3.0934   -0.8340   -2.3729 C.ar      1 <0>        -0.0479
     30 C23        -3.8627   -1.1646   -1.2996 C.ar      1 <0>        -0.1119
     31 C24        -5.1572   -0.6673   -1.1645 C.ar      1 <0>        -0.1050
     32 C25        -5.6905    0.1632   -2.1020 C.ar      1 <0>        -0.1242
     33 C26        -4.9266    0.5267   -3.2238 C.ar      1 <0>        -0.0469
     34 C27        -3.6074    0.0258   -3.3581 C.ar      1 <0>        -0.0333
     35 C28        -2.8412    0.3942   -4.4774 C.ar      1 <0>        -0.0928
     36 C29        -3.3723    1.2292   -5.4116 C.ar      1 <0>        -0.1250
     37 C30        -4.6672    1.7270   -5.2761 C.ar      1 <0>        -0.1189
     38 C31        -5.4431    1.3814   -4.2127 C.ar      1 <0>        -0.1113
     39 H2          1.5881    1.5933   -0.3465 H         1 <0>         0.0965
     40 H3         -0.2657    1.8176   -0.2356 H         1 <0>         0.0958
     41 H4          1.3077   -0.7777   -0.2368 H         1 <0>         0.1100
     42 H5         -1.0371   -1.2266    0.8714 H         1 <0>         0.0872
     43 H6         -1.6795    0.0745   -0.1595 H         1 <0>         0.0807
     44 H7          0.5071   -3.0534   -4.4162 H         1 <0>         0.1364
     45 H8          2.1320   -3.3310   -6.2395 H         1 <0>         0.1252
     46 H9          1.3602   -3.5022   -8.5684 H         1 <0>         0.1237
     47 H10        -2.6933   -3.1315   -7.2711 H         1 <0>         0.1353
     48 H11         0.5482   -2.7219  -10.3294 H         1 <0>         0.0722
     49 H12         0.4354   -4.4904  -10.1617 H         1 <0>         0.0725
     50 H13        -0.9859   -5.7907  -11.6420 H         1 <0>         0.1360
     51 H14        -2.0474   -5.9341  -13.8590 H         1 <0>         0.1361
     52 H15        -1.7588   -1.6968  -14.2695 H         1 <0>         0.1359
     53 H16        -0.7071   -1.5542  -12.0478 H         1 <0>         0.1355
     54 H17        -3.4637   -1.8224   -0.5417 H         1 <0>         0.1180
     55 H18        -5.7465   -0.9452   -0.3031 H         1 <0>         0.1173
     56 H19        -6.6956    0.5404   -1.9843 H         1 <0>         0.1200
     57 H20        -1.8362    0.0169   -4.5953 H         1 <0>         0.1238
     58 H21        -2.7815    1.5108   -6.2707 H         1 <0>         0.1173
     59 H22        -5.0645    2.3883   -6.0318 H         1 <0>         0.1163
     60 H23        -6.4450    1.7742   -4.1214 H         1 <0>         0.1205
@<TRIPOS>BOND
     1    1    2 2
     2    1   39 1
     3    1   40 1
     4    2    3 1
     5    2   41 1
     6    3    4 1
     7    3   42 1
     8    3   43 1
     9    4    9 am
    10    4    5 1
    11    5    6 1
    12    5    7 1
    13    5   29 1
    14    7    8 2
    15    7   12 1
    16    8    9 1
    17    8   11 1
    18    9   10 2
    19   12   13 2
    20   12   14 1
    21   14   19 ar
    22   14   15 ar
    23   15   16 ar
    24   15   44 1
    25   16   17 ar
    26   16   45 1
    27   17   18 ar
    28   17   46 1
    29   18   19 ar
    30   18   20 1
    31   19   47 1
    32   20   21 1
    33   21   22 1
    34   21   48 1
    35   21   49 1
    36   22   27 ar
    37   22   23 ar
    38   23   24 ar
    39   23   50 1
    40   24   25 ar
    41   24   51 1
    42   25   26 ar
    43   25   28 1
    44   26   27 ar
    45   26   52 1
    46   27   53 1
    47   29   34 ar
    48   29   30 ar
    49   30   31 ar
    50   30   54 1
    51   31   32 ar
    52   31   55 1
    53   32   33 ar
    54   32   56 1
    55   33   38 ar
    56   33   34 ar
    57   34   35 ar
    58   35   36 ar
    59   35   57 1
    60   36   37 ar
    61   36   58 1
    62   37   38 ar
    63   37   59 1
    64   38   60 1
@<TRIPOS>MOLECULE
ZINC59198327
   41    43     0     0     0
SMALL
USER_CHARGES

@<TRIPOS>ATOM
      1 C1         -1.4376    0.5477   -2.2218 C.3       1 <0>         0.0249
      2 O1         -0.9614   -0.5887   -1.4981 O.3       1 <0>        -0.2997
      3 C2          0.3428   -0.9207   -1.6622 C.ar      1 <0>         0.2098
      4 C3          1.1526   -0.1700   -2.4954 C.ar      1 <0>        -0.3067
      5 C4          2.4870   -0.5143   -2.6599 C.ar      1 <0>         0.2087
      6 C5          3.0199   -1.6155   -1.9893 C.ar      1 <0>        -0.1607
      7 C6          2.2366   -2.3668   -1.1642 C.ar      1 <0>         0.0667
      8 C7          0.8840   -2.0305   -0.9801 C.ar      1 <0>        -0.1467
      9 C8          0.0699   -2.8031   -0.1205 C.2       1 <0>         0.0756
     10 C9          0.0484   -4.1862   -0.2421 C.2       1 <0>        -0.2453
     11 C10        -0.6226   -5.0346    0.7536 C.2       1 <0>         0.4984
     12 O2         -1.2411   -4.4881    1.8216 O.3       1 <0>        -0.6326
     13 N1         -0.6067   -6.3454    0.5786 N.2       1 <0>        -0.6598
     14 C11        -0.0054   -6.9115   -0.4645 C.2       1 <0>         0.6668
     15 O3         -0.0339   -8.1260   -0.5563 O.2       1 <0>        -0.5616
     16 N2          0.6300   -6.2184   -1.4206 N.am      1 <0>        -0.5476
     17 C12         0.6927   -4.8701   -1.3794 C.2       1 <0>         0.5615
     18 O4          1.2653   -4.2404   -2.2492 O.2       1 <0>        -0.5042
     19 C13         1.2341   -6.9041   -2.4828 C.ar      1 <0>         0.1605
     20 C14         2.6151   -6.8837   -2.6282 C.ar      1 <0>        -0.0863
     21 C15         3.2081   -7.5603   -3.6759 C.ar      1 <0>        -0.1063
     22 C16         2.4285   -8.2576   -4.5804 C.ar      1 <0>        -0.0956
     23 C17         1.0524   -8.2797   -4.4389 C.ar      1 <0>        -0.0823
     24 C18         0.4539   -7.6098   -3.3883 C.ar      1 <0>        -0.0672
     25 Br1        -0.0097   -9.2341   -5.6786 Br        1 <0>        -0.0564
     26 Br2         4.8402   -2.0694   -2.2266 Br        1 <0>        -0.0417
     27 O5          3.2778    0.2240   -3.4781 O.3       1 <0>        -0.2978
     28 C19         2.6704    1.3381   -4.1353 C.3       1 <0>         0.0243
     29 H1         -0.8711    1.4306   -1.9256 H         1 <0>         0.0573
     30 H2         -1.3112    0.3767   -3.2908 H         1 <0>         0.0568
     31 H3         -2.4936    0.7027   -2.0009 H         1 <0>         0.1051
     32 H4          0.7466    0.6835   -3.0179 H         1 <0>         0.1427
     33 H5          2.6563   -3.2180   -0.6488 H         1 <0>         0.1399
     34 H6         -0.5355   -2.3176    0.6306 H         1 <0>         0.1541
     35 H7          3.2248   -6.3388   -1.9227 H         1 <0>         0.1279
     36 H8          4.2821   -7.5446   -3.7891 H         1 <0>         0.1345
     37 H9          2.8946   -8.7857   -5.3991 H         1 <0>         0.1320
     38 H10        -0.6199   -7.6314   -3.2749 H         1 <0>         0.1323
     39 H11         1.8488    0.9876   -4.7600 H         1 <0>         0.0575
     40 H12         2.2881    2.0354   -3.3898 H         1 <0>         0.0573
     41 H13         3.4109    1.8409   -4.7572 H         1 <0>         0.1035
@<TRIPOS>BOND
     1    1    2 1
     2    1   29 1
     3    1   30 1
     4    1   31 1
     5    2    3 1
     6    3    8 ar
     7    3    4 ar
     8    4    5 ar
     9    4   32 1
    10    5    6 ar
    11    5   27 1
    12    6    7 ar
    13    6   26 1
    14    7    8 ar
    15    7   33 1
    16    8    9 1
    17    9   10 2
    18    9   34 1
    19   10   17 1
    20   10   11 1
    21   11   12 1
    22   11   13 2
    23   13   14 1
    24   14   15 2
    25   14   16 am
    26   16   17 am
    27   16   19 1
    28   17   18 2
    29   19   24 ar
    30   19   20 ar
    31   20   21 ar
    32   20   35 1
    33   21   22 ar
    34   21   36 1
    35   22   23 ar
    36   22   37 1
    37   23   24 ar
    38   23   25 1
    39   24   38 1
    40   27   28 1
    41   28   39 1
    42   28   40 1
    43   28   41 1
@<TRIPOS>MOLECULE
ZINC04208807
   52    55     0     0     0
SMALL
USER_CHARGES
2-(9H-fluoren-9-ylmethoxycarbonylamino)-3-(p-tolyl)propanoic acid
@<TRIPOS>ATOM
      1 C1         -5.3958    0.8094    4.7513 C.3       1 <0>        -0.1097
      2 C2         -5.5327    2.2753    4.4296 C.ar      1 <0>        -0.1016
      3 C3         -5.6279    3.2013    5.4516 C.ar      1 <0>        -0.1189
      4 C4         -5.7531    4.5459    5.1566 C.ar      1 <0>        -0.1109
      5 C5         -5.7824    4.9647    3.8395 C.ar      1 <0>        -0.0726
      6 C6         -5.6924    4.0383    2.8175 C.ar      1 <0>        -0.1119
      7 C7         -5.5634    2.6940    3.1126 C.ar      1 <0>        -0.1188
      8 C8         -5.9188    6.4307    3.5178 C.3       1 <0>        -0.0750
      9 C9         -4.5289    7.0628    3.4202 C.3       1 <0>         0.1270
     10 H1         -3.9763    6.8691    4.3395 H         1 <0>         0.0925
     11 C10        -4.6664    8.5502    3.2206 C.2       1 <0>         0.4579
     12 O1         -4.2085    9.0719    2.2316 O.co2     1 <0>        -0.6248
     13 N1         -3.8071    6.4824    2.2851 N.am      1 <0>        -0.6749
     14 C11        -2.4594    6.4754    2.2759 C.2       1 <0>         0.6547
     15 O2         -1.8430    6.9504    3.2091 O.2       1 <0>        -0.5744
     16 O3         -1.7961    5.9420    1.2327 O.3       1 <0>        -0.3734
     17 C12        -0.3455    5.9689    1.2905 C.3       1 <0>         0.1098
     18 C13         0.2273    5.3234    0.0272 C.3       1 <0>        -0.0105
     19 C14        -0.0641    3.8428    0.0224 C.ar      1 <0>        -0.0772
     20 C15        -1.2453    3.1318    0.0294 C.ar      1 <0>        -0.0846
     21 C16        -1.2212    1.7483    0.0173 C.ar      1 <0>        -0.1128
     22 C17        -0.0126    1.0758    0.0080 C.ar      1 <0>        -0.1208
     23 C18         1.1742    1.7791    0.0004 C.ar      1 <0>        -0.0990
     24 C19         1.1575    3.1749    0.0076 C.ar      1 <0>        -0.0608
     25 C20         2.2622    4.1657    0.0022 C.ar      1 <0>        -0.0491
     26 C21         1.7308    5.4525    0.0137 C.ar      1 <0>        -0.0832
     27 C22         2.5657    6.5497    0.0110 C.ar      1 <0>        -0.0936
     28 C23         3.9383    6.3757   -0.0032 C.ar      1 <0>        -0.1134
     29 C24         4.4757    5.1012   -0.0147 C.ar      1 <0>        -0.1174
     30 C25         3.6479    3.9977   -0.0116 C.ar      1 <0>        -0.0989
     31 H2         -6.3858    0.3589    4.8215 H         1 <0>         0.0653
     32 H3         -4.8271    0.3160    3.9631 H         1 <0>         0.0622
     33 H4         -4.8754    0.6931    5.7020 H         1 <0>         0.0622
     34 H5         -5.6043    2.8741    6.4806 H         1 <0>         0.1174
     35 H6         -5.8275    5.2693    5.9550 H         1 <0>         0.1243
     36 H7         -5.7198    4.3651    1.7885 H         1 <0>         0.1179
     37 H8         -5.4894    1.9705    2.3141 H         1 <0>         0.1166
     38 H9         -6.4878    6.9241    4.3057 H         1 <0>         0.1018
     39 H10        -6.4385    6.5472    2.5668 H         1 <0>         0.0742
     40 H11        -4.2992    6.1032    1.5401 H         1 <0>         0.3960
     41 H12        -0.0065    5.4162    2.1667 H         1 <0>         0.0708
     42 H13        -0.0037    7.0018    1.3578 H         1 <0>         0.0770
     43 H14        -0.1976    5.7924   -0.8603 H         1 <0>         0.1148
     44 H15        -2.1901    3.6550    0.0409 H         1 <0>         0.1314
     45 H16        -2.1474    1.1928    0.0191 H         1 <0>         0.1264
     46 H17         0.0021   -0.0041    0.0020 H         1 <0>         0.1242
     47 H18         2.1156    1.2500   -0.0107 H         1 <0>         0.1204
     48 H19         2.1480    7.5457    0.0203 H         1 <0>         0.1290
     49 H20         4.5910    7.2362   -0.0057 H         1 <0>         0.1284
     50 H21         5.5476    4.9695   -0.0254 H         1 <0>         0.1259
     51 H22         4.0717    3.0044   -0.0203 H         1 <0>         0.1223
     52 O4         -5.2976    9.2954    4.1415 O.co2     1 <0>        -0.7620
@<TRIPOS>BOND
     1    1    2 1
     2    1   31 1
     3    1   32 1
     4    1   33 1
     5    2    7 ar
     6    2    3 ar
     7    3    4 ar
     8    3   34 1
     9    4    5 ar
    10    4   35 1
    11    5    6 ar
    12    5    8 1
    13    6    7 ar
    14    6   36 1
    15    7   37 1
    16    8    9 1
    17    8   38 1
    18    8   39 1
    19    9   10 1
    20    9   11 1
    21    9   13 1
    22   11   12 2
    23   11   52 1
    24   13   14 am
    25   13   40 1
    26   14   15 2
    27   14   16 1
    28   16   17 1
    29   17   18 1
    30   17   41 1
    31   17   42 1
    32   18   26 1
    33   18   19 1
    34   18   43 1
    35   19   24 ar
    36   19   20 ar
    37   20   21 ar
    38   20   44 1
    39   21   22 ar
    40   21   45 1
    41   22   23 ar
    42   22   46 1
    43   23   24 ar
    44   23   47 1
    45   24   25 1
    46   25   30 ar
    47   25   26 ar
    48   26   27 ar
    49   27   28 ar
    50   27   48 1
    51   28   29 ar
    52   28   49 1
    53   29   30 ar
    54   29   50 1
    55   30   51 1
@<TRIPOS>MOLECULE
ZINC26204869
   43    45     0     0     0
SMALL
USER_CHARGES
5-[(2-bromo-5-methyl-phenyl)sulfamoyl]-2-chloro-N-(cyclopropylmethyl)benzamide
@<TRIPOS>ATOM
      1 C1          1.4476    3.3918   -0.4866 C.3       1 <0>        -0.1130
      2 C2          1.3554    1.8895   -0.4123 C.ar      1 <0>        -0.0459
      3 C3          2.5001    1.1211   -0.5214 C.ar      1 <0>        -0.1932
      4 C4          2.4202   -0.2576   -0.4538 C.ar      1 <0>        -0.0650
      5 C5          1.1951   -0.8723   -0.2778 C.ar      1 <0>        -0.1335
      6 C6          0.0431   -0.1029   -0.1684 C.ar      1 <0>         0.2616
      7 C7          0.1277    1.2818   -0.2363 C.ar      1 <0>        -0.2382
      8 N1         -1.1974   -0.7207    0.0101 N.2       1 <0>        -1.0363
      9 S1         -2.5522   -0.0754   -0.6901 S.o2      1 <0>         2.5846
     10 O1         -3.6122   -0.9885   -0.4413 O.2       1 <0>        -0.9895
     11 O2         -2.6088    1.2859   -0.2864 O.2       1 <0>        -1.0314
     12 C8         -2.2877   -0.0734   -2.4322 C.ar      1 <0>        -0.6597
     13 C9         -1.7060    1.0253   -3.0407 C.ar      1 <0>         0.0109
     14 C10        -1.4893    1.0335   -4.4063 C.ar      1 <0>        -0.1438
     15 C11        -1.8633   -0.0523   -5.1743 C.ar      1 <0>         0.0469
     16 C12        -2.4561   -1.1617   -4.5666 C.ar      1 <0>        -0.1580
     17 C13        -2.6661   -1.1642   -3.1863 C.ar      1 <0>         0.0211
     18 C14        -2.8585   -2.3273   -5.3808 C.2       1 <0>         0.5612
     19 O3         -2.6744   -2.3221   -6.5824 O.2       1 <0>        -0.5261
     20 N2         -3.4298   -3.3962   -4.7912 N.am      1 <0>        -0.7394
     21 C15        -3.8288   -4.5518   -5.5985 C.3       1 <0>         0.1323
     22 C16        -4.4469   -5.6181   -4.6919 C.3       1 <0>        -0.2628
     23 C17        -3.7224   -6.9615   -4.5859 C.3       1 <0>        -0.1273
     24 C18        -5.0366   -6.8603   -5.3628 C.3       1 <0>        -0.1195
     25 Cl1        -1.5968   -0.0382   -6.8897 Cl        1 <0>        -0.0372
     26 Br1         1.0865   -2.7580   -0.1855 Br        1 <0>        -0.0739
     27 H1          2.4975    3.6882   -0.6277 H         1 <0>         0.0578
     28 H2          1.0655    3.8292    0.4476 H         1 <0>         0.0661
     29 H3          0.8471    3.7545   -1.3339 H         1 <0>         0.0643
     30 H4          3.4586    1.5991   -0.6597 H         1 <0>         0.1103
     31 H5          3.3161   -0.8547   -0.5390 H         1 <0>         0.1141
     32 H6         -0.7662    1.8826   -0.1561 H         1 <0>         0.1525
     33 H7         -1.4158    1.8785   -2.4454 H         1 <0>         0.1471
     34 H8         -1.0309    1.8923   -4.8741 H         1 <0>         0.1413
     35 H9         -3.1242   -2.0185   -2.7102 H         1 <0>         0.1421
     36 H10        -3.5965   -3.4009   -3.7039 H         1 <0>         0.4219
     37 H11        -4.5674   -4.2365   -6.3502 H         1 <0>         0.0641
     38 H12        -2.9454   -4.9681   -6.1047 H         1 <0>         0.0589
     39 H13        -4.8158   -4.8737   -3.9709 H         1 <0>         0.1248
     40 H14        -2.7186   -6.8725   -5.0269 H         1 <0>         0.1020
     41 H15        -3.6338   -7.2478   -3.5275 H         1 <0>         0.1044
     42 H16        -6.0345   -7.0629   -4.9466 H         1 <0>         0.1028
     43 H17        -5.1192   -6.6877   -6.4460 H         1 <0>         0.1003
@<TRIPOS>BOND
     1    1    2 1
     2    1   27 1
     3    1   28 1
     4    1   29 1
     5    2    7 ar
     6    2    3 ar
     7    3    4 ar
     8    3   30 1
     9    4    5 ar
    10    4   31 1
    11    5    6 ar
    12    5   26 1
    13    6    7 ar
    14    6    8 1
    15    7   32 1
    16    8    9 1
    17    9   10 2
    18    9   11 2
    19    9   12 1
    20   12   17 ar
    21   12   13 ar
    22   13   14 ar
    23   13   33 1
    24   14   15 ar
    25   14   34 1
    26   15   16 ar
    27   15   25 1
    28   16   17 ar
    29   16   18 1
    30   17   35 1
    31   18   19 2
    32   18   20 am
    33   20   21 1
    34   20   36 1
    35   21   22 1
    36   21   37 1
    37   21   38 1
    38   22   24 1
    39   22   23 1
    40   22   39 1
    41   23   24 1
    42   23   40 1
    43   23   41 1
    44   24   42 1
    45   24   43 1
@<TRIPOS>MOLECULE
ZINC12360142
   51    54     0     0     0
SMALL
USER_CHARGES

@<TRIPOS>ATOM
      1 C1          1.2344    1.6840   -2.6716 C.ar      1 <0>        -0.1256
      2 C2          1.4933    2.2064   -1.4100 C.ar      1 <0>        -0.0851
      3 C3          2.1201    1.4206   -0.4646 C.ar      1 <0>        -0.0782
      4 C4          2.4804    0.1289   -0.7852 C.ar      1 <0>        -0.1045
      5 C5          2.2294   -0.4289   -2.0610 C.ar      1 <0>        -0.0960
      6 C6          1.5834    0.4140   -3.0016 C.ar      1 <0>        -0.0590
      7 C7          2.6570   -1.7590   -2.2325 C.2       1 <0>        -0.0010
      8 C8          3.2646   -2.4134   -1.2057 C.2       1 <0>        -0.1589
      9 S1          3.2794   -1.1904    0.0935 S.3       1 <0>         0.1076
     10 C9          3.7806   -3.7877   -1.1743 C.2       1 <0>         0.6037
     11 O1          3.6878   -4.4950   -2.1600 O.2       1 <0>        -0.5076
     12 N1          4.3569   -4.2658   -0.0537 N.am      1 <0>        -0.6817
     13 C10         4.7722   -5.6690    0.0151 C.3       1 <0>         0.2135
     14 H1          4.1099   -6.2746   -0.6036 H         1 <0>         0.1017
     15 C11         4.6988   -6.1521    1.4650 C.3       1 <0>        -0.1912
     16 C12         3.2630   -6.1515    1.9227 C.2       1 <0>         0.4896
     17 O2          2.3905   -5.7136    1.1922 O.co2     1 <0>        -0.6831
     18 O3          2.9739   -6.5889    3.0234 O.co2     1 <0>        -0.7034
     19 C13         6.1871   -5.7993   -0.4869 C.ar      1 <0>        -0.1159
     20 C14         7.1292   -4.8445   -0.1513 C.ar      1 <0>        -0.0690
     21 C15         8.4268   -4.9615   -0.6105 C.ar      1 <0>        -0.2079
     22 C16         8.7845   -6.0384   -1.4087 C.ar      1 <0>         0.1189
     23 C17         7.8375   -6.9953   -1.7436 C.ar      1 <0>        -0.1504
     24 C18         6.5425   -6.8765   -1.2775 C.ar      1 <0>        -0.0653
     25 O4         10.0602   -6.1554   -1.8621 O.3       1 <0>        -0.3112
     26 C19        11.0108   -5.2049   -1.3774 C.3       1 <0>         0.0798
     27 C20        11.0004   -3.9457   -2.2685 C.3       1 <0>        -0.1486
     28 C21        12.4862   -3.5124   -2.3312 C.3       1 <0>        -0.1235
     29 C22        13.2345   -4.8668   -2.3994 C.3       1 <0>        -0.1228
     30 C23        12.4313   -5.7906   -1.4606 C.3       1 <0>        -0.1217
     31 Cl1         2.4093   -2.5632   -3.7509 Cl        1 <0>        -0.0260
     32 H2          0.7395    2.3020   -3.4062 H         1 <0>         0.1299
     33 H3          1.2065    3.2199   -1.1715 H         1 <0>         0.1366
     34 H4          2.3274    1.8147    0.5194 H         1 <0>         0.1364
     35 H5          1.3663    0.0410   -3.9916 H         1 <0>         0.1298
     36 H6          4.4968   -3.6807    0.7072 H         1 <0>         0.3929
     37 H7          5.1011   -7.1629    1.5320 H         1 <0>         0.0764
     38 H8          5.2829   -5.4858    2.0999 H         1 <0>         0.0629
     39 H9          6.8502   -4.0064    0.4701 H         1 <0>         0.1183
     40 H10         9.1621   -4.2150   -0.3487 H         1 <0>         0.1236
     41 H11         8.1135   -7.8345   -2.3648 H         1 <0>         0.1269
     42 H12         5.8060   -7.6236   -1.5343 H         1 <0>         0.1303
     43 H13        10.7775   -4.9360   -0.3472 H         1 <0>         0.0760
     44 H14        10.6310   -4.1868   -3.2653 H         1 <0>         0.0794
     45 H15        10.3934   -3.1622   -1.8148 H         1 <0>         0.0712
     46 H16        12.6782   -2.9195   -3.2255 H         1 <0>         0.0700
     47 H17        12.7660   -2.9612   -1.4335 H         1 <0>         0.0689
     48 H18        13.2259   -5.2567   -3.4172 H         1 <0>         0.0688
     49 H19        14.2580   -4.7556   -2.0411 H         1 <0>         0.0685
     50 H20        12.8877   -5.8051   -0.4708 H         1 <0>         0.0757
     51 H21        12.3956   -6.7998   -1.8707 H         1 <0>         0.0804
@<TRIPOS>BOND
     1    1    6 ar
     2    1    2 ar
     3    1   32 1
     4    2    3 ar
     5    2   33 1
     6    3    4 ar
     7    3   34 1
     8    4    9 1
     9    4    5 ar
    10    5    6 ar
    11    5    7 1
    12    6   35 1
    13    7    8 2
    14    7   31 1
    15    8    9 1
    16    8   10 1
    17   10   11 2
    18   10   12 am
    19   12   13 1
    20   12   36 1
    21   13   14 1
    22   13   15 1
    23   13   19 1
    24   15   16 1
    25   15   37 1
    26   15   38 1
    27   16   17 2
    28   16   18 1
    29   19   24 ar
    30   19   20 ar
    31   20   21 ar
    32   20   39 1
    33   21   22 ar
    34   21   40 1
    35   22   23 ar
    36   22   25 1
    37   23   24 ar
    38   23   41 1
    39   24   42 1
    40   25   26 1
    41   26   30 1
    42   26   27 1
    43   26   43 1
    44   27   28 1
    45   27   44 1
    46   27   45 1
    47   28   29 1
    48   28   46 1
    49   28   47 1
    50   29   30 1
    51   29   48 1
    52   29   49 1
    53   30   50 1
    54   30   51 1
@<TRIPOS>MOLECULE
ZINC44196669
   34    34     0     0     0
SMALL
USER_CHARGES

@<TRIPOS>ATOM
      1 C1          0.1492    1.6122    0.2069 C.3       1 <0>        -0.1850
      2 C2          0.0435    0.0917    0.0734 C.3       1 <0>         0.1349
      3 C3          0.7569   -0.5746    1.2515 C.3       1 <0>        -0.1838
      4 C4         -1.4304   -0.3188    0.0715 C.3       1 <0>        -0.1385
      5 O1          0.6550   -0.3228   -1.1499 O.3       1 <0>        -0.3587
      6 C5          1.9608   -0.0357   -1.3084 C.2       1 <0>         0.6632
      7 O2          2.5647    0.5508   -0.4322 O.2       1 <0>        -0.5698
      8 N1          2.5981   -0.3987   -2.4391 N.am      1 <0>        -0.6795
      9 C6          3.9881    0.0082   -2.6594 C.3       1 <0>         0.2671
     10 H1          4.1532    0.9911   -2.2180 H         1 <0>         0.1213
     11 C7          4.2693    0.0703   -4.1621 C.3       1 <0>        -0.1943
     12 C8          3.4432    1.1672   -4.7829 C.2       1 <0>         0.4935
     13 O3          2.6385    1.7825   -4.1045 O.co2     1 <0>        -0.6811
     14 O4          3.5797    1.4393   -5.9635 O.co2     1 <0>        -0.6966
     15 C9          4.9126   -0.9931   -2.0163 C.2       1 <0>        -0.0985
     16 C10         6.0566   -0.7755   -1.3229 C.2       1 <0>        -0.1532
     17 C11         6.7506   -1.8594   -0.8168 C.2       1 <0>        -0.0643
     18 C12         6.2648   -3.1081   -1.0299 C.2       1 <0>        -0.1745
     19 S1          4.7806   -2.7726   -1.9636 S.3       1 <0>         0.1383
     20 Br1         6.9720   -4.7718   -0.4748 Br        1 <0>         0.0475
     21 Br2         8.3518   -1.6051    0.1566 Br        1 <0>        -0.0277
     22 H2          1.1993    1.9046    0.2082 H         1 <0>         0.0903
     23 H3         -0.3590    2.0868   -0.6325 H         1 <0>         0.0612
     24 H4         -0.3172    1.9283    1.1399 H         1 <0>         0.0630
     25 H5          0.2905   -0.2584    2.1846 H         1 <0>         0.0647
     26 H6          0.6816   -1.6578    1.1564 H         1 <0>         0.0557
     27 H7          1.8069   -0.2821    1.2529 H         1 <0>         0.0887
     28 H8         -1.9387    0.1558   -0.7679 H         1 <0>         0.0666
     29 H9         -1.5058   -1.4021   -0.0236 H         1 <0>         0.0634
     30 H10        -1.8968   -0.0027    1.0045 H         1 <0>         0.0757
     31 H11         2.1365   -0.9295   -3.1070 H         1 <0>         0.4045
     32 H12         5.3273    0.2753   -4.3256 H         1 <0>         0.0840
     33 H13         4.0092   -0.8840   -4.6201 H         1 <0>         0.0703
     34 H14         6.4211    0.2293   -1.1682 H         1 <0>         0.1519
@<TRIPOS>BOND
     1    1    2 1
     2    1   22 1
     3    1   23 1
     4    1   24 1
     5    2    3 1
     6    2    4 1
     7    2    5 1
     8    3   25 1
     9    3   26 1
    10    3   27 1
    11    4   28 1
    12    4   29 1
    13    4   30 1
    14    5    6 1
    15    6    7 2
    16    6    8 am
    17    8    9 1
    18    8   31 1
    19    9   10 1
    20    9   11 1
    21    9   15 1
    22   11   12 1
    23   11   32 1
    24   11   33 1
    25   12   13 2
    26   12   14 1
    27   15   19 1
    28   15   16 2
    29   16   17 1
    30   16   34 1
    31   17   18 2
    32   17   21 1
    33   18   19 1
    34   18   20 1
@<TRIPOS>MOLECULE
ZINC50650677
   36    37     0     0     0
SMALL
USER_CHARGES

@<TRIPOS>ATOM
      1 C1         -0.0187    1.5258    0.0104 C.3       1 <0>        -0.1491
      2 C2          0.0021   -0.0041    0.0020 C.3       1 <0>        -0.1350
      3 C3          0.7182   -0.4975   -1.2568 C.3       1 <0>         0.1248
      4 N1          0.7381   -1.9623   -1.2648 N.pl3     1 <0>        -0.7257
      5 C4          1.3394   -2.6435   -2.3168 C.ar      1 <0>         0.4271
      6 C5          1.9255   -1.9279   -3.3562 C.ar      1 <0>        -0.2607
      7 C6          2.5202   -2.6183   -4.3965 C.ar      1 <0>         0.0590
      8 C7          2.5089   -4.0067   -4.3626 C.ar      1 <0>        -0.7219
      9 C8          1.9093   -4.6522   -3.3002 C.ar      1 <0>         0.2450
     10 N2          1.3540   -3.9674   -2.3182 N.ar      1 <0>        -0.5578
     11 S1          3.2521   -4.9347   -5.6631 S.o2      1 <0>         2.6154
     12 O1          2.6252   -6.2099   -5.6616 O.2       1 <0>        -1.0301
     13 O2          3.2634   -4.0927   -6.8077 O.2       1 <0>        -1.0311
     14 N3          4.8345   -5.1847   -5.2438 N.2       1 <0>        -1.0726
     15 C9          5.6783   -5.9006   -6.0965 C.ar      1 <0>         0.3055
     16 C10         5.1931   -6.3985   -7.2991 C.ar      1 <0>        -0.2584
     17 C11         6.0300   -7.1054   -8.1400 C.ar      1 <0>        -0.0521
     18 C12         7.3500   -7.3180   -7.7862 C.ar      1 <0>        -0.2270
     19 C13         7.8365   -6.8244   -6.5898 C.ar      1 <0>        -0.0431
     20 C14         7.0062   -6.1113   -5.7463 C.ar      1 <0>        -0.1577
     21 I1          7.7465   -5.3562   -3.9378 I         1 <0>        -0.0734
     22 H1          1.0039    1.9031    0.0027 H         1 <0>         0.0584
     23 H2         -0.5459    1.8868   -0.8726 H         1 <0>         0.0578
     24 H3         -0.5289    1.8773    0.9072 H         1 <0>         0.0596
     25 H4          0.5293   -0.3651    0.8851 H         1 <0>         0.0698
     26 H5         -1.0205   -0.3814    0.0098 H         1 <0>         0.0691
     27 H6          0.1910   -0.1364   -2.1398 H         1 <0>         0.0637
     28 H7          1.7408   -0.1202   -1.2645 H         1 <0>         0.0648
     29 H8          0.3316   -2.4569   -0.5361 H         1 <0>         0.4039
     30 H9          1.9159   -0.8479   -3.3508 H         1 <0>         0.1325
     31 H10         2.9827   -2.0898   -5.2169 H         1 <0>         0.1446
     32 H11         1.8979   -5.7317   -3.2700 H         1 <0>         0.1688
     33 H12         4.1624   -6.2333   -7.5761 H         1 <0>         0.1025
     34 H13         5.6531   -7.4931   -9.0749 H         1 <0>         0.1062
     35 H14         8.0022   -7.8712   -8.4458 H         1 <0>         0.1077
     36 H15         8.8676   -6.9928   -6.3162 H         1 <0>         0.1097
@<TRIPOS>BOND
     1    1    2 1
     2    1   22 1
     3    1   23 1
     4    1   24 1
     5    2    3 1
     6    2   25 1
     7    2   26 1
     8    3    4 1
     9    3   27 1
    10    3   28 1
    11    4    5 1
    12    4   29 1
    13    5   10 ar
    14    5    6 ar
    15    6    7 ar
    16    6   30 1
    17    7    8 ar
    18    7   31 1
    19    8    9 ar
    20    8   11 1
    21    9   10 ar
    22    9   32 1
    23   11   12 2
    24   11   13 2
    25   11   14 1
    26   14   15 1
    27   15   20 ar
    28   15   16 ar
    29   16   17 ar
    30   16   33 1
    31   17   18 ar
    32   17   34 1
    33   18   19 ar
    34   18   35 1
    35   19   20 ar
    36   19   36 1
    37   20   21 1
@<TRIPOS>MOLECULE
ZINC04766940
   53    56     0     0     0
SMALL
USER_CHARGES
3-[[3-methyl-4-(p-tolyl)piperazin-1-yl]carbonylmethyl]-1H-indole-2-carboxylic acid
@<TRIPOS>ATOM
      1 C1          0.0021   -0.0041    0.0020 C.3       1 <0>        -0.1137
      2 C2         -0.0184    1.5028    0.0103 C.ar      1 <0>        -0.0942
      3 C3         -1.2261    2.1763    0.0197 C.ar      1 <0>        -0.1158
      4 C4         -1.2484    3.5571    0.0331 C.ar      1 <0>        -0.0911
      5 C5         -0.0559    4.2695    0.0255 C.ar      1 <0>         0.0948
      6 C6          1.1555    3.5898    0.0103 C.ar      1 <0>        -0.1458
      7 C7          1.1706    2.2089    0.0027 C.ar      1 <0>        -0.1112
      8 N1         -0.0748    5.6661    0.0337 N.pl3     1 <0>        -0.4993
      9 C8          0.6733    6.2094   -1.1079 C.3       1 <0>         0.0464
     10 C9          0.4781    7.7282   -1.1660 C.3       1 <0>         0.1144
     11 N2          0.8398    8.2961    0.1416 N.am      1 <0>        -0.6231
     12 C10         0.2332    7.7102    1.3466 C.3       1 <0>         0.1236
     13 C11         0.4380    6.1921    1.3058 C.3       1 <0>         0.0765
     14 H1          1.5009    5.9661    1.3908 H         1 <0>         0.0480
     15 C12        -0.3171    5.5436    2.4678 C.3       1 <0>        -0.1444
     16 C13         1.7047    9.3257    0.2333 C.2       1 <0>         0.5320
     17 O1          1.9917    9.7816    1.3199 O.2       1 <0>        -0.5295
     18 C14         2.3150    9.9105   -1.0143 C.3       1 <0>        -0.0601
     19 C15         3.2390   11.0404   -0.6395 C.2       1 <0>        -0.1383
     20 C16         4.6205   10.9288   -0.3521 C.ar      1 <0>        -0.0888
     21 C17         5.5122    9.8484   -0.3195 C.ar      1 <0>        -0.0725
     22 C18         6.8216   10.0586    0.0008 C.ar      1 <0>        -0.1558
     23 C19         7.2818   11.3362    0.2954 C.ar      1 <0>        -0.1152
     24 C20         6.4254   12.4138    0.2701 C.ar      1 <0>        -0.1252
     25 C21         5.0844   12.2249   -0.0534 C.ar      1 <0>         0.0861
     26 N3          4.0132   13.0798   -0.1597 N.pl3     1 <0>        -0.5621
     27 H2          4.0380   14.0377   -0.0095 H         1 <0>         0.4213
     28 C22         2.8965   12.3509   -0.5223 C.2       1 <0>         0.0850
     29 C23         1.5534   12.9033   -0.7430 C.2       1 <0>         0.5126
     30 O2          0.6380   12.1681   -1.0582 O.co2     1 <0>        -0.6073
     31 H3          0.0168   -0.3729    1.0276 H         1 <0>         0.0685
     32 H4         -0.8878   -0.3767   -0.5053 H         1 <0>         0.0652
     33 H5          0.8920   -0.3525   -0.5222 H         1 <0>         0.0643
     34 H6         -2.1529    1.6218    0.0207 H         1 <0>         0.1227
     35 H7         -2.1919    4.0824    0.0449 H         1 <0>         0.1287
     36 H8          2.0844    4.1407    0.0048 H         1 <0>         0.1175
     37 H9          2.1121    1.6798   -0.0094 H         1 <0>         0.1187
     38 H10         1.7329    5.9831   -0.9892 H         1 <0>         0.0424
     39 H11         0.3064    5.7596   -2.0305 H         1 <0>         0.0884
     40 H12         1.1202    8.1505   -1.9389 H         1 <0>         0.0938
     41 H13        -0.5646    7.9551   -1.3879 H         1 <0>         0.0786
     42 H14         0.7133    8.1207    2.2349 H         1 <0>         0.0945
     43 H15        -0.8325    7.9384    1.3679 H         1 <0>         0.0721
     44 H16        -0.1731    4.4636    2.4371 H         1 <0>         0.0582
     45 H17         0.0637    5.9342    3.4115 H         1 <0>         0.0642
     46 H18        -1.3797    5.7711    2.3828 H         1 <0>         0.0667
     47 H19         2.8787    9.1390   -1.5390 H         1 <0>         0.0830
     48 H20         1.5245   10.2875   -1.6632 H         1 <0>         0.1222
     49 H21         5.1639    8.8519   -0.5476 H         1 <0>         0.1109
     50 H22         7.5070    9.2243    0.0252 H         1 <0>         0.1130
     51 H23         8.3216   11.4853    0.5462 H         1 <0>         0.1170
     52 H24         6.7927   13.4029    0.5010 H         1 <0>         0.1147
     53 O3          1.3359   14.2260   -0.5959 O.co2     1 <0>        -0.7526
@<TRIPOS>BOND
     1    1    2 1
     2    1   31 1
     3    1   32 1
     4    1   33 1
     5    2    7 ar
     6    2    3 ar
     7    3    4 ar
     8    3   34 1
     9    4    5 ar
    10    4   35 1
    11    5    6 ar
    12    5    8 1
    13    6    7 ar
    14    6   36 1
    15    7   37 1
    16    8   13 1
    17    8    9 1
    18    9   10 1
    19    9   38 1
    20    9   39 1
    21   10   11 1
    22   10   40 1
    23   10   41 1
    24   11   12 1
    25   11   16 am
    26   12   13 1
    27   12   42 1
    28   12   43 1
    29   13   14 1
    30   13   15 1
    31   15   44 1
    32   15   45 1
    33   15   46 1
    34   16   17 2
    35   16   18 1
    36   18   19 1
    37   18   47 1
    38   18   48 1
    39   19   28 2
    40   19   20 1
    41   20   25 ar
    42   20   21 ar
    43   21   22 ar
    44   21   49 1
    45   22   23 ar
    46   22   50 1
    47   23   24 ar
    48   23   51 1
    49   24   25 ar
    50   24   52 1
    51   25   26 1
    52   26   27 1
    53   26   28 1
    54   28   29 1
    55   29   30 2
    56   29   53 1
@<TRIPOS>MOLECULE
ZINC17096065
   57    61     0     0     0
SMALL
USER_CHARGES
(1S,4R,5R,6S)-6-[[3-(piperidine-1-carbonyl)-4,5,6,7-tetrahydrobenzothiophen-2-yl]carbamoyl]bicyclo[2.2.1]hept-2-ene-5-carboxylic acid
@<TRIPOS>ATOM
      1 C1          0.9356   -2.4527   -6.3205 C.3       1 <0>        -0.1171
      2 C2          0.9039   -0.9651   -5.9625 C.3       1 <0>        -0.1354
      3 C3          2.2901   -0.5316   -5.4754 C.3       1 <0>         0.1104
      4 N1          2.6991   -1.4095   -4.3706 N.am      1 <0>        -0.6112
      5 C4          2.6841   -2.8635   -4.5810 C.3       1 <0>         0.1123
      6 C5          1.2881   -3.2711   -5.0763 C.3       1 <0>        -0.1362
      7 C6          3.0859   -0.8907   -3.1883 C.2       1 <0>         0.5871
      8 O1          3.0989    0.3157   -3.0282 O.2       1 <0>        -0.5218
      9 C7          3.4913   -1.7797   -2.0951 C.2       1 <0>        -0.2479
     10 C8          4.8750   -2.1922   -1.9330 C.2       1 <0>        -0.0590
     11 C9          5.1110   -3.0167   -0.8895 C.2       1 <0>        -0.2345
     12 S1          3.5305   -3.2415   -0.1241 S.3       1 <0>         0.2237
     13 C10         2.5682   -2.2554   -1.1746 C.2       1 <0>         0.1179
     14 N2          1.2054   -2.0067   -1.1138 N.am      1 <0>        -0.6030
     15 C11         0.4609   -2.5674   -0.1403 C.2       1 <0>         0.5319
     16 O2          0.9828   -3.2893    0.6826 O.2       1 <0>        -0.4914
     17 C12        -1.0202   -2.2971   -0.0742 C.3       1 <0>        -0.0843
     18 H1         -1.4336   -2.1870   -1.0768 H         1 <0>         0.0871
     19 C13        -1.7523   -3.4371    0.7030 C.3       1 <0>        -0.0550
     20 H2         -1.4699   -4.4573    0.4429 H         1 <0>         0.0996
     21 C14        -1.5041   -2.9747    2.1854 C.3       1 <0>        -0.1122
     22 C15        -2.1759   -1.5669    1.9564 C.3       1 <0>        -0.0571
     23 H3         -2.2725   -0.9087    2.8199 H         1 <0>         0.0997
     24 C16        -1.3057   -1.0336    0.7740 C.3       1 <0>        -0.1204
     25 H4         -1.8604   -0.2982    0.1913 H         1 <0>         0.0778
     26 C17        -0.0200   -0.4393    1.2884 C.2       1 <0>         0.4568
     27 O3          0.4026   -0.7609    2.3737 O.co2     1 <0>        -0.6174
     28 C18        -3.4821   -2.0115    1.2878 C.2       1 <0>        -0.1551
     29 C19        -3.2391   -3.0870    0.5658 C.2       1 <0>        -0.1815
     30 C20         6.4269   -3.6047   -0.4825 C.3       1 <0>        -0.0287
     31 C21         7.4131   -3.4352   -1.6474 C.3       1 <0>        -0.1109
     32 C22         7.3397   -1.9901   -2.1491 C.3       1 <0>        -0.1176
     33 C23         6.0044   -1.7520   -2.8563 C.3       1 <0>        -0.0566
     34 H5         -0.0431   -2.7580   -6.6907 H         1 <0>         0.0633
     35 H6          1.6857   -2.6245   -7.0925 H         1 <0>         0.0626
     36 H7          0.1717   -0.7964   -5.1729 H         1 <0>         0.0674
     37 H8          0.6299   -0.3847   -6.8435 H         1 <0>         0.0731
     38 H9          2.2486    0.5001   -5.1261 H         1 <0>         0.0920
     39 H10         3.0083   -0.6124   -6.2914 H         1 <0>         0.0637
     40 H11         3.4323   -3.1326   -5.3265 H         1 <0>         0.0654
     41 H12         2.9025   -3.3710   -3.6413 H         1 <0>         0.0870
     42 H13         0.5523   -3.0807   -4.2950 H         1 <0>         0.0658
     43 H14         1.2870   -4.3321   -5.3264 H         1 <0>         0.0732
     44 H15         0.7879   -1.4293   -1.7720 H         1 <0>         0.4169
     45 H16        -2.0467   -3.5831    2.9090 H         1 <0>         0.0631
     46 H17        -0.4440   -2.8971    2.4266 H         1 <0>         0.1068
     47 H18        -4.4399   -1.5234    1.3913 H         1 <0>         0.1220
     48 H19        -3.9641   -3.6297   -0.0226 H         1 <0>         0.1231
     49 H20         6.8048   -3.0848    0.3979 H         1 <0>         0.0773
     50 H21         6.3021   -4.6641   -0.2586 H         1 <0>         0.0754
     51 H22         7.1455   -4.1164   -2.4551 H         1 <0>         0.0651
     52 H23         8.4247   -3.6518   -1.3041 H         1 <0>         0.0679
     53 H24         8.1568   -1.8072   -2.8470 H         1 <0>         0.0643
     54 H25         7.4275   -1.3093   -1.3024 H         1 <0>         0.0666
     55 H26         5.9704   -2.3330   -3.7780 H         1 <0>         0.0704
     56 H27         5.8965   -0.6919   -3.0860 H         1 <0>         0.0714
     57 O4          0.6558    0.4475    0.5409 O.co2     1 <0>        -0.7539
@<TRIPOS>BOND
     1    1    6 1
     2    1    2 1
     3    1   34 1
     4    1   35 1
     5    2    3 1
     6    2   36 1
     7    2   37 1
     8    3    4 1
     9    3   38 1
    10    3   39 1
    11    4    5 1
    12    4    7 am
    13    5    6 1
    14    5   40 1
    15    5   41 1
    16    6   42 1
    17    6   43 1
    18    7    8 2
    19    7    9 1
    20    9   13 2
    21    9   10 1
    22   10   33 1
    23   10   11 2
    24   11   12 1
    25   11   30 1
    26   12   13 1
    27   13   14 1
    28   14   15 am
    29   14   44 1
    30   15   16 2
    31   15   17 1
    32   17   18 1
    33   17   24 1
    34   17   19 1
    35   19   20 1
    36   19   29 1
    37   19   21 1
    38   21   22 1
    39   21   45 1
    40   21   46 1
    41   22   23 1
    42   22   24 1
    43   22   28 1
    44   24   25 1
    45   24   26 1
    46   26   27 2
    47   26   57 1
    48   28   29 2
    49   28   47 1
    50   29   48 1
    51   30   31 1
    52   30   49 1
    53   30   50 1
    54   31   32 1
    55   31   51 1
    56   31   52 1
    57   32   33 1
    58   32   53 1
    59   32   54 1
    60   33   55 1
    61   33   56 1
@<TRIPOS>MOLECULE
ZINC39887380
   48    50     0     0     0
SMALL
USER_CHARGES

@<TRIPOS>ATOM
      1 C1         -0.1117    1.3490    0.0464 C.3       1 <0>        -0.1452
      2 C2         -0.0185   -0.1781    0.0462 C.3       1 <0>        -0.0801
      3 C3          0.6749   -0.6389   -1.2100 C.ar      1 <0>        -0.0754
      4 C4         -0.0682   -1.0080   -2.3143 C.ar      1 <0>        -0.1195
      5 C5          0.5673   -1.4304   -3.4673 C.ar      1 <0>        -0.1151
      6 C6          1.9483   -1.4848   -3.5192 C.ar      1 <0>        -0.1232
      7 C7          2.6971   -1.1177   -2.4186 C.ar      1 <0>        -0.0786
      8 C8          2.0619   -0.6874   -1.2605 C.ar      1 <0>         0.1608
      9 N1          2.8173   -0.3090   -0.1463 N.pl3     1 <0>        -0.5718
     10 C9          3.0467   -1.2506    0.9546 C.3       1 <0>         0.4301
     11 H1          2.3631   -2.0942    0.8584 H         1 <0>         0.1096
     12 N2          2.8154   -0.5801    2.2354 N.am      1 <0>        -0.7430
     13 C10         3.0525    0.7398    2.3715 C.2       1 <0>         0.6014
     14 O1          2.8982    1.2815    3.4512 O.2       1 <0>        -0.5667
     15 C11         3.4971    1.5188    1.2135 C.2       1 <0>        -0.3204
     16 C12         3.3622    0.9485   -0.0660 C.2       1 <0>         0.4565
     17 S1          3.8682    1.8163   -1.5136 S.3       1 <0>        -0.7858
     18 C13         4.0595    2.8254    1.3788 C.1       1 <0>         0.3361
     19 N3          4.5055    3.8618    1.5099 N.1       1 <0>        -0.4980
     20 C14         4.4680   -1.7486    0.9003 C.ar      1 <0>        -0.1178
     21 C15         5.1715   -1.6983   -0.2888 C.ar      1 <0>        -0.0855
     22 C16         6.4755   -2.1539   -0.3437 C.ar      1 <0>        -0.1711
     23 C17         7.0805   -2.6618    0.7947 C.ar      1 <0>         0.1028
     24 C18         6.3726   -2.7120    1.9916 C.ar      1 <0>         0.0917
     25 C19         5.0674   -2.2493    2.0410 C.ar      1 <0>        -0.1434
     26 O2          6.9620   -3.2096    3.1116 O.3       1 <0>        -0.3085
     27 C20         6.1751   -3.2302    4.3043 C.3       1 <0>         0.0263
     28 O3          8.3631   -3.1108    0.7422 O.3       1 <0>        -0.3088
     29 C21         9.0280   -3.0290   -0.5200 C.3       1 <0>         0.0264
     30 H2          0.8912    1.7743    0.0082 H         1 <0>         0.0668
     31 H3         -0.6795    1.6785   -0.8238 H         1 <0>         0.0505
     32 H4         -0.6133    1.6823    0.9550 H         1 <0>         0.0529
     33 H5          0.5493   -0.5076    0.9163 H         1 <0>         0.0712
     34 H6         -1.0214   -0.6034    0.0844 H         1 <0>         0.0650
     35 H7         -1.1467   -0.9669   -2.2769 H         1 <0>         0.1198
     36 H8         -0.0161   -1.7188   -4.3292 H         1 <0>         0.1181
     37 H9          2.4416   -1.8152   -4.4214 H         1 <0>         0.1206
     38 H10         3.7755   -1.1611   -2.4596 H         1 <0>         0.1285
     39 H11         2.4883   -1.0902    2.9927 H         1 <0>         0.4001
     40 H12         4.7011   -1.3027   -1.1768 H         1 <0>         0.1410
     41 H13         7.0226   -2.1142   -1.2741 H         1 <0>         0.1345
     42 H14         4.5170   -2.2836    2.9696 H         1 <0>         0.1345
     43 H15         5.8741   -2.2139    4.5586 H         1 <0>         0.0562
     44 H16         5.2877   -3.8425    4.1436 H         1 <0>         0.0528
     45 H17         6.7632   -3.6500    5.1204 H         1 <0>         0.0971
     46 H18         8.4815   -3.6171   -1.2573 H         1 <0>         0.0537
     47 H19         9.0684   -1.9886   -0.8427 H         1 <0>         0.0558
     48 H20        10.0412   -3.4189   -0.4230 H         1 <0>         0.0971
@<TRIPOS>BOND
     1    1    2 1
     2    1   30 1
     3    1   31 1
     4    1   32 1
     5    2    3 1
     6    2   33 1
     7    2   34 1
     8    3    8 ar
     9    3    4 ar
    10    4    5 ar
    11    4   35 1
    12    5    6 ar
    13    5   36 1
    14    6    7 ar
    15    6   37 1
    16    7    8 ar
    17    7   38 1
    18    8    9 1
    19    9   16 1
    20    9   10 1
    21   10   11 1
    22   10   12 1
    23   10   20 1
    24   12   13 am
    25   12   39 1
    26   13   14 2
    27   13   15 1
    28   15   16 2
    29   15   18 1
    30   16   17 1
    31   18   19 3
    32   20   25 ar
    33   20   21 ar
    34   21   22 ar
    35   21   40 1
    36   22   23 ar
    37   22   41 1
    38   23   24 ar
    39   23   28 1
    40   24   25 ar
    41   24   26 1
    42   25   42 1
    43   26   27 1
    44   27   43 1
    45   27   44 1
    46   27   45 1
    47   28   29 1
    48   29   46 1
    49   29   47 1
    50   29   48 1
@<TRIPOS>MOLECULE
ZINC44038070
   39    40     0     0     0
SMALL
USER_CHARGES

@<TRIPOS>ATOM
      1 C1         -0.0167    1.3786    0.0096 C.ar      1 <0>        -0.0600
      2 C2          1.1689    2.0869    0.0021 C.ar      1 <0>        -0.1808
      3 C3          2.3811    1.4088   -0.0131 C.ar      1 <0>         0.2850
      4 C4          2.3964    0.0198   -0.0206 C.ar      1 <0>        -0.2631
      5 C5          1.2071   -0.6823   -0.0130 C.ar      1 <0>        -0.0459
      6 C6          0.0021   -0.0041    0.0020 C.ar      1 <0>        -0.1879
      7 C7         -1.2936   -0.7736    0.0107 C.3       1 <0>        -0.0721
      8 C8         -1.7396   -1.0224   -1.4071 C.2       1 <0>         0.5146
      9 O1         -1.0711   -0.6151   -2.3334 O.2       1 <0>        -0.5085
     10 N1         -2.8813   -1.6977   -1.6457 N.am      1 <0>        -0.7422
     11 C9         -3.3148   -1.9396   -3.0241 C.3       1 <0>         0.0783
     12 C10        -4.6303   -2.7209   -3.0152 C.3       1 <0>         0.4482
     13 F1         -5.6079   -1.9804   -2.3421 F         1 <0>        -0.1791
     14 F2         -5.0443   -2.9519   -4.3314 F         1 <0>        -0.1753
     15 F3         -4.4416   -3.9447   -2.3641 F         1 <0>        -0.1790
     16 N2          3.5820    2.1220   -0.0212 N.2       1 <0>        -1.0845
     17 S1          5.0262    1.3117   -0.0392 S.o2      1 <0>         2.6011
     18 O2          5.1229    0.6264    1.2018 O.2       1 <0>        -1.0244
     19 O3          5.0987    0.6388   -1.2887 O.2       1 <0>        -1.0168
     20 C11         6.3041    2.5247   -0.0456 C.ar      1 <0>        -0.6695
     21 C12         7.1676    2.6242    1.0292 C.ar      1 <0>         0.0251
     22 C13         8.1706    3.5747    1.0254 C.ar      1 <0>        -0.1909
     23 C14         8.3114    4.4293   -0.0553 C.ar      1 <0>         0.1638
     24 C15         7.4475    4.3306   -1.1320 C.ar      1 <0>        -0.2192
     25 C16         6.4466    3.3741   -1.1296 C.ar      1 <0>         0.2330
     26 F4          5.6060    3.2730   -2.1824 F         1 <0>        -0.1047
     27 F5          9.2916    5.3591   -0.0584 F         1 <0>        -0.1305
     28 H1         -0.9595    1.9052    0.0260 H         1 <0>         0.1022
     29 H2          1.1535    3.1668    0.0077 H         1 <0>         0.1120
     30 H3          3.3371   -0.5105   -0.0328 H         1 <0>         0.0961
     31 H4          1.2182   -1.7622   -0.0189 H         1 <0>         0.0992
     32 H5         -1.1466   -1.7270    0.5180 H         1 <0>         0.0934
     33 H6         -2.0553   -0.1966    0.5352 H         1 <0>         0.0942
     34 H7         -3.4160   -2.0235   -0.9049 H         1 <0>         0.4049
     35 H8         -3.4619   -0.9862   -3.5313 H         1 <0>         0.1124
     36 H9         -2.5532   -2.5166   -3.5485 H         1 <0>         0.1123
     37 H10         7.0581    1.9587    1.8727 H         1 <0>         0.1592
     38 H11         8.8447    3.6515    1.8657 H         1 <0>         0.1470
     39 H12         7.5566    4.9965   -1.9752 H         1 <0>         0.1525
@<TRIPOS>BOND
     1    1    6 ar
     2    1    2 ar
     3    1   28 1
     4    2    3 ar
     5    2   29 1
     6    3    4 ar
     7    3   16 1
     8    4    5 ar
     9    4   30 1
    10    5    6 ar
    11    5   31 1
    12    6    7 1
    13    7    8 1
    14    7   32 1
    15    7   33 1
    16    8    9 2
    17    8   10 am
    18   10   11 1
    19   10   34 1
    20   11   12 1
    21   11   35 1
    22   11   36 1
    23   12   13 1
    24   12   14 1
    25   12   15 1
    26   16   17 1
    27   17   18 2
    28   17   19 2
    29   17   20 1
    30   20   25 ar
    31   20   21 ar
    32   21   22 ar
    33   21   37 1
    34   22   23 ar
    35   22   38 1
    36   23   24 ar
    37   23   27 1
    38   24   25 ar
    39   24   39 1
    40   25   26 1
@<TRIPOS>MOLECULE
ZINC37111698
   36    38     0     0     0
SMALL
USER_CHARGES

@<TRIPOS>ATOM
      1 C1         -0.0282    1.3735    0.0371 C.ar      1 <0>        -0.2058
      2 C2          1.1549    2.0894    0.0330 C.ar      1 <0>        -0.0731
      3 C3          2.3681    1.4273    0.0111 C.ar      1 <0>        -0.2523
      4 C4          2.4011    0.0407   -0.0069 C.ar      1 <0>         0.2680
      5 C5          1.2077   -0.6813   -0.0028 C.ar      1 <0>         0.0657
      6 C6         -0.0049   -0.0085    0.0193 C.ar      1 <0>        -0.0821
      7 N1          1.2337   -2.0817   -0.0214 N.am      1 <0>        -0.6198
      8 C7          0.1817   -2.7689   -0.5088 C.2       1 <0>         0.5464
      9 O1         -0.7459   -2.1755   -1.0240 O.2       1 <0>        -0.5305
     10 C8          0.1558   -4.2439   -0.4169 C.ar      1 <0>        -0.1662
     11 C9         -0.9286   -4.9698   -0.9246 C.ar      1 <0>         0.0094
     12 C10        -0.9037   -6.3496   -0.8139 C.ar      1 <0>        -0.1571
     13 C11         0.1820   -6.9611   -0.2106 C.ar      1 <0>         0.1481
     14 N2          1.1893   -6.2505    0.2590 N.ar      1 <0>        -0.4743
     15 C12         1.2142   -4.9367    0.1721 C.ar      1 <0>         0.1486
     16 Br1        -2.3375   -7.3877   -1.4789 Br        1 <0>        -0.0302
     17 N3          3.6277   -0.6317   -0.0296 N.2       1 <0>        -1.0987
     18 S1          5.0431    0.2279   -0.0350 S.o2      1 <0>         2.6395
     19 O2          5.0900    0.9253   -1.2722 O.2       1 <0>        -1.0186
     20 O3          5.1187    0.8936    1.2182 O.2       1 <0>        -1.0199
     21 C13         6.3619   -0.9402   -0.0650 C.2       1 <0>        -0.6706
     22 C14         6.9924   -1.4885   -1.1323 C.2       1 <0>        -0.0439
     23 C15         8.0136   -2.3944   -0.9150 C.2       1 <0>        -0.1808
     24 C16         8.3544   -2.7076    0.3590 C.2       1 <0>        -0.1674
     25 S2          7.2198   -1.7027    1.3024 S.3       1 <0>         0.1403
     26 H1         -0.9733    1.8957    0.0588 H         1 <0>         0.1073
     27 H2          1.1310    3.1690    0.0467 H         1 <0>         0.1049
     28 H3          3.2902    1.9895    0.0076 H         1 <0>         0.1015
     29 H4         -0.9308   -0.5643    0.0229 H         1 <0>         0.1322
     30 H5          2.0089   -2.5569    0.3165 H         1 <0>         0.4138
     31 H6         -1.7629   -4.4664   -1.3902 H         1 <0>         0.1585
     32 H7          0.2044   -8.0372   -0.1226 H         1 <0>         0.1683
     33 H8          2.0594   -4.3903    0.5640 H         1 <0>         0.1722
     34 H9          6.7009   -1.2219   -2.1375 H         1 <0>         0.1424
     35 H10         8.5320   -2.8461   -1.7479 H         1 <0>         0.1362
     36 H11         9.1172   -3.3859    0.7118 H         1 <0>         0.1884
@<TRIPOS>BOND
     1    1    6 ar
     2    1    2 ar
     3    1   26 1
     4    2    3 ar
     5    2   27 1
     6    3    4 ar
     7    3   28 1
     8    4    5 ar
     9    4   17 1
    10    5    6 ar
    11    5    7 1
    12    6   29 1
    13    7    8 am
    14    7   30 1
    15    8    9 2
    16    8   10 1
    17   10   15 ar
    18   10   11 ar
    19   11   12 ar
    20   11   31 1
    21   12   13 ar
    22   12   16 1
    23   13   14 ar
    24   13   32 1
    25   14   15 ar
    26   15   33 1
    27   17   18 1
    28   18   19 2
    29   18   20 2
    30   18   21 1
    31   21   25 1
    32   21   22 2
    33   22   23 1
    34   22   34 1
    35   23   24 2
    36   23   35 1
    37   24   25 1
    38   24   36 1
@<TRIPOS>MOLECULE
ZINC66579433
   33    35     0     0     0
SMALL
USER_CHARGES

@<TRIPOS>ATOM
      1 C1         -0.0167    1.3788    0.0096 C.ar      1 <0>        -0.1172
      2 C2          1.1670    2.0882    0.0021 C.ar      1 <0>        -0.0831
      3 C3          2.3849    1.4077   -0.0132 C.ar      1 <0>        -0.0641
      4 C4          2.3979    0.0124   -0.0208 C.ar      1 <0>        -0.0707
      5 C5          1.2071   -0.6858   -0.0132 C.ar      1 <0>        -0.0928
      6 C6          0.0021   -0.0041    0.0020 C.ar      1 <0>        -0.0864
      7 Br1         1.2216   -2.5767   -0.0241 Br        1 <0>        -0.0502
      8 C7          3.6563    2.1618   -0.0218 C.2       1 <0>         0.0025
      9 C8          4.8119    1.5125   -0.0363 C.2       1 <0>        -0.6656
     10 S1          6.3274    2.4113   -0.0465 S.o2      1 <0>         2.5968
     11 O1          7.1236    1.8531   -1.0827 O.2       1 <0>        -1.0253
     12 O2          5.9825    3.7893   -0.0091 O.2       1 <0>        -1.0286
     13 N1          7.1035    2.0788    1.3781 N.2       1 <0>        -1.0832
     14 C9          8.3462    2.6605    1.6498 C.ar      1 <0>         0.3011
     15 C10         8.9269    3.5223    0.7262 C.ar      1 <0>        -0.2437
     16 C11        10.1533    4.0989    0.9889 C.ar      1 <0>        -0.0201
     17 C12        10.8106    3.8196    2.1770 C.ar      1 <0>        -0.0797
     18 C13        10.2298    2.9557    3.1052 C.ar      1 <0>         0.1106
     19 C14         8.9961    2.3818    2.8433 C.ar      1 <0>        -0.1715
     20 N2         11.1138    2.8734    4.1808 N.am      1 <0>        -0.6502
     21 H1         10.9894    2.3476    4.9864 H         1 <0>         0.4350
     22 C15        12.1723    3.6575    3.8965 C.2       1 <0>         0.6349
     23 O3         13.1379    3.8220    4.6171 O.2       1 <0>        -0.5200
     24 O4         11.9961    4.2282    2.6948 O.3       1 <0>        -0.2407
     25 H2         -0.9598    1.9048    0.0260 H         1 <0>         0.1356
     26 H3          1.1507    3.1681    0.0077 H         1 <0>         0.1373
     27 H4          3.3375   -0.5201   -0.0330 H         1 <0>         0.1400
     28 H5         -0.9271   -0.5545    0.0083 H         1 <0>         0.1334
     29 H6          3.6436    3.2417   -0.0162 H         1 <0>         0.1458
     30 H7          4.8245    0.4326   -0.0419 H         1 <0>         0.1509
     31 H8          8.4168    3.7411   -0.2003 H         1 <0>         0.1172
     32 H9         10.6010    4.7675    0.2685 H         1 <0>         0.1248
     33 H10         8.5442    1.7160    3.5638 H         1 <0>         0.1273
@<TRIPOS>BOND
     1    1    6 ar
     2    1    2 ar
     3    1   25 1
     4    2    3 ar
     5    2   26 1
     6    3    4 ar
     7    3    8 1
     8    4    5 ar
     9    4   27 1
    10    5    6 ar
    11    5    7 1
    12    6   28 1
    13    8    9 2
    14    8   29 1
    15    9   10 1
    16    9   30 1
    17   10   11 2
    18   10   12 2
    19   10   13 1
    20   13   14 1
    21   14   19 ar
    22   14   15 ar
    23   15   16 ar
    24   15   31 1
    25   16   17 ar
    26   16   32 1
    27   17   24 1
    28   17   18 ar
    29   18   19 ar
    30   18   20 1
    31   19   33 1
    32   20   21 1
    33   20   22 am
    34   22   23 2
    35   22   24 1
@<TRIPOS>MOLECULE
ZINC01921552
   46    49     0     0     0
SMALL
USER_CHARGES
2-(4-chlorophenyl)sulfanyl-N-[3-(1-naphthyl)-2,6-dioxo-pyrimidin-4-yl]-acetamide
@<TRIPOS>ATOM
      1 C1          5.6330    3.3240    3.1715 C.ar      1 <0>        -0.1148
      2 C2          4.4188    2.6532    3.3046 C.ar      1 <0>        -0.0961
      3 C3          3.7297    2.2284    2.2099 C.ar      1 <0>        -0.1188
      4 C4          4.2473    2.4671    0.9271 C.ar      1 <0>        -0.0310
      5 C5          5.4817    3.1491    0.7907 C.ar      1 <0>        -0.0494
      6 C6          6.1647    3.5733    1.9438 C.ar      1 <0>        -0.0947
      7 C7          6.0007    3.3896   -0.4927 C.ar      1 <0>        -0.0782
      8 C8          5.3173    2.9678   -1.5923 C.ar      1 <0>        -0.1136
      9 C9          4.1072    2.2913   -1.4703 C.ar      1 <0>        -0.0714
     10 C10         3.5616    2.0414   -0.2300 C.ar      1 <0>         0.1106
     11 N1          2.3421    1.3668   -0.1189 N.am      1 <0>        -0.4892
     12 C11         1.1700    2.0819   -0.0416 C.2       1 <0>         0.4215
     13 C12        -0.0157    1.4158    0.0661 C.2       1 <0>        -0.2571
     14 C13        -0.0092    0.0097    0.0961 C.2       1 <0>         0.5569
     15 O1         -1.0564   -0.6066    0.1914 O.2       1 <0>        -0.5022
     16 N2          1.1623   -0.6519    0.0182 N.am      1 <0>        -0.6595
     17 H1          1.1696   -1.6516    0.0397 H         1 <0>         0.4430
     18 C14         2.3222    0.0216   -0.0882 C.2       1 <0>         0.7054
     19 O2          3.3682   -0.5944   -0.1572 O.2       1 <0>        -0.5164
     20 N3          1.1930    3.4600   -0.0737 N.am      1 <0>        -0.6790
     21 C15         1.0127    4.1100   -1.2406 C.2       1 <0>         0.5476
     22 O3          0.7436    3.4878   -2.2459 O.2       1 <0>        -0.4809
     23 C16         1.1455    5.6101   -1.2958 C.3       1 <0>        -0.1573
     24 S1          0.8477    6.1815   -2.9915 S.3       1 <0>        -0.0126
     25 C17         1.0368    7.9305   -2.8914 C.ar      1 <0>        -0.0990
     26 C18         1.3416    8.5293   -1.6750 C.ar      1 <0>        -0.1248
     27 C19         1.4943    9.8997   -1.6008 C.ar      1 <0>        -0.0882
     28 C20         1.3334   10.6777   -2.7340 C.ar      1 <0>        -0.0401
     29 C21         1.0242   10.0848   -3.9457 C.ar      1 <0>        -0.0876
     30 C22         0.8758    8.7143   -4.0274 C.ar      1 <0>        -0.0842
     31 Cl1         1.5202   12.4008   -2.6355 Cl        1 <0>        -0.0635
     32 H2          6.1596    3.6513    4.0558 H         1 <0>         0.1291
     33 H3          4.0183    2.4683    4.2904 H         1 <0>         0.1279
     34 H4          2.7896    1.7099    2.3280 H         1 <0>         0.1180
     35 H5          7.1065    4.0945    1.8558 H         1 <0>         0.1342
     36 H6          6.9407    3.9089   -0.6069 H         1 <0>         0.1376
     37 H7          5.7234    3.1569   -2.5750 H         1 <0>         0.1371
     38 H8          3.5873    1.9630   -2.3582 H         1 <0>         0.1311
     39 H9         -0.9466    1.9604    0.1231 H         1 <0>         0.1791
     40 H10         1.3388    3.9619    0.7435 H         1 <0>         0.4255
     41 H11         0.4156    6.0645   -0.6258 H         1 <0>         0.1283
     42 H12         2.1506    5.8975   -0.9868 H         1 <0>         0.1269
     43 H13         1.4629    7.9231   -0.7894 H         1 <0>         0.1301
     44 H14         1.7359   10.3652   -0.6567 H         1 <0>         0.1380
     45 H15         0.8992   10.6945   -4.8283 H         1 <0>         0.1414
     46 H16         0.6352    8.2521   -4.9734 H         1 <0>         0.1400
@<TRIPOS>BOND
     1    1    6 ar
     2    1    2 ar
     3    1   32 1
     4    2    3 ar
     5    2   33 1
     6    3    4 ar
     7    3   34 1
     8    4   10 ar
     9    4    5 ar
    10    5    6 ar
    11    5    7 ar
    12    6   35 1
    13    7    8 ar
    14    7   36 1
    15    8    9 ar
    16    8   37 1
    17    9   10 ar
    18    9   38 1
    19   10   11 1
    20   11   18 am
    21   11   12 1
    22   12   13 2
    23   12   20 1
    24   13   14 1
    25   13   39 1
    26   14   15 2
    27   14   16 am
    28   16   17 1
    29   16   18 am
    30   18   19 2
    31   20   21 am
    32   20   40 1
    33   21   22 2
    34   21   23 1
    35   23   24 1
    36   23   41 1
    37   23   42 1
    38   24   25 1
    39   25   30 ar
    40   25   26 ar
    41   26   27 ar
    42   26   43 1
    43   27   28 ar
    44   27   44 1
    45   28   29 ar
    46   28   31 1
    47   29   30 ar
    48   29   45 1
    49   30   46 1
@<TRIPOS>MOLECULE
ZINC07247080
   51    55     0     0     0
SMALL
USER_CHARGES
N-[2-(1H-indol-3-yl)ethyl]-2-[(5-methyl-[1,2,4]triazolo[4,5-a]quinolin-1-yl)sulfanyl]acetamide
@<TRIPOS>ATOM
      1 C1          5.0888    9.5743   -0.0152 C.3       1 <0>        -0.1160
      2 C2          4.3360    8.2687   -0.0102 C.2       1 <0>        -0.0393
      3 C3          5.0042    7.0932   -0.0083 C.2       1 <0>        -0.0879
      4 C4          4.2969    5.8678   -0.0079 C.2       1 <0>         0.2159
      5 N1          4.6970    4.6094   -0.0188 N.2       1 <0>        -0.2657
      6 N2          3.6766    3.8273   -0.0129 N.2       1 <0>        -0.2629
      7 C5          2.5652    4.5299    0.0019 C.2       1 <0>         0.1275
      8 N3          2.9202    5.8470    0.0001 N.pl3     1 <0>        -0.3914
      9 C6          2.1929    7.0246    0.0064 C.ar      1 <0>         0.1350
     10 C7          2.8699    8.2572    0.0015 C.ar      1 <0>        -0.0652
     11 C8          2.1417    9.4502    0.0075 C.ar      1 <0>        -0.0781
     12 C9          0.7650    9.4087    0.0181 C.ar      1 <0>        -0.1146
     13 C10         0.0998    8.1919    0.0229 C.ar      1 <0>        -0.0787
     14 C11         0.8048    7.0058    0.0171 C.ar      1 <0>        -0.1242
     15 S1          0.9237    3.8896    0.0141 S.3       1 <0>         0.0913
     16 C12         1.2785    2.1147    0.0012 C.3       1 <0>        -0.1582
     17 C13        -0.0162    1.3436    0.0094 C.2       1 <0>         0.5345
     18 O1         -1.0746    1.9356    0.0177 O.2       1 <0>        -0.5238
     19 N4          0.0021   -0.0041    0.0020 N.am      1 <0>        -0.7227
     20 C14        -1.2565   -0.7538    0.0100 C.3       1 <0>         0.1244
     21 C15        -0.9566   -2.2540   -0.0009 C.3       1 <0>        -0.0527
     22 C16        -2.2513   -3.0252    0.0073 C.2       1 <0>        -0.1741
     23 C17        -2.8759   -3.5254    1.0851 C.2       1 <0>         0.0624
     24 N5         -4.0261   -4.1614    0.7044 N.pl3     1 <0>        -0.5945
     25 H1         -4.6463   -4.5998    1.3078 H         1 <0>         0.4173
     26 C18        -4.1691   -4.0914   -0.6632 C.ar      1 <0>         0.0948
     27 C19        -3.0636   -3.3767   -1.1600 C.ar      1 <0>        -0.1004
     28 C20        -2.9415   -3.1476   -2.5315 C.ar      1 <0>        -0.0716
     29 C21        -3.8979   -3.6196   -3.3860 C.ar      1 <0>        -0.1443
     30 C22        -4.9900   -4.3256   -2.9011 C.ar      1 <0>        -0.0978
     31 C23        -5.1304   -4.5628   -1.5511 C.ar      1 <0>        -0.1301
     32 H2          5.2786    9.8881    1.0112 H         1 <0>         0.0845
     33 H3          6.0371    9.4449   -0.5368 H         1 <0>         0.0807
     34 H4          4.4952   10.3340   -0.5236 H         1 <0>         0.0774
     35 H5          6.0842    7.0897   -0.0186 H         1 <0>         0.1610
     36 H6          2.6559   10.3999    0.0041 H         1 <0>         0.1453
     37 H7          0.2002   10.3293    0.0230 H         1 <0>         0.1395
     38 H8         -0.9800    8.1725    0.0316 H         1 <0>         0.1418
     39 H9          0.2771    6.0635    0.0206 H         1 <0>         0.1387
     40 H10         1.8621    1.8544    0.8843 H         1 <0>         0.1287
     41 H11         1.8451    1.8640   -0.8956 H         1 <0>         0.1289
     42 H12         0.8486   -0.4776   -0.0086 H         1 <0>         0.4052
     43 H13        -1.8231   -0.5030    0.9068 H         1 <0>         0.0710
     44 H14        -1.8401   -0.4935   -0.8731 H         1 <0>         0.0726
     45 H15        -0.3900   -2.5048   -0.8977 H         1 <0>         0.0784
     46 H16        -0.3730   -2.5143    0.8822 H         1 <0>         0.0778
     47 H17        -2.5237   -3.4373    2.1022 H         1 <0>         0.1708
     48 H18        -2.0943   -2.5992   -2.9161 H         1 <0>         0.1205
     49 H19        -3.8033   -3.4417   -4.4470 H         1 <0>         0.1228
     50 H20        -5.7375   -4.6925   -3.5889 H         1 <0>         0.1256
     51 H21        -5.9842   -5.1126   -1.1835 H         1 <0>         0.1200
@<TRIPOS>BOND
     1    1    2 1
     2    1   32 1
     3    1   33 1
     4    1   34 1
     5    2   10 1
     6    2    3 2
     7    3    4 1
     8    3   35 1
     9    4    8 1
    10    4    5 2
    11    5    6 1
    12    6    7 2
    13    7    8 1
    14    7   15 1
    15    8    9 1
    16    9   14 ar
    17    9   10 ar
    18   10   11 ar
    19   11   12 ar
    20   11   36 1
    21   12   13 ar
    22   12   37 1
    23   13   14 ar
    24   13   38 1
    25   14   39 1
    26   15   16 1
    27   16   17 1
    28   16   40 1
    29   16   41 1
    30   17   18 2
    31   17   19 am
    32   19   20 1
    33   19   42 1
    34   20   21 1
    35   20   43 1
    36   20   44 1
    37   21   22 1
    38   21   45 1
    39   21   46 1
    40   22   27 1
    41   22   23 2
    42   23   24 1
    43   23   47 1
    44   24   25 1
    45   24   26 1
    46   26   31 ar
    47   26   27 ar
    48   27   28 ar
    49   28   29 ar
    50   28   48 1
    51   29   30 ar
    52   29   49 1
    53   30   31 ar
    54   30   50 1
    55   31   51 1
@<TRIPOS>MOLECULE
ZINC19536314
   52    54     0     0     0
SMALL
USER_CHARGES

@<TRIPOS>ATOM
      1 C1         -0.0184    1.5028    0.0103 C.3       1 <0>        -0.1161
      2 C2          0.0021   -0.0041    0.0020 C.2       1 <0>         0.2346
      3 C3         -1.1555   -0.6874    0.0038 C.2       1 <0>        -0.2543
      4 C4         -1.1739   -2.1877   -0.0122 C.3       1 <0>         0.0822
      5 H1         -1.9389   -2.5436    0.6780 H         1 <0>         0.0973
      6 C5          0.1638   -2.7495    0.3989 C.2       1 <0>        -0.2706
      7 C6          1.2717   -1.9787    0.3761 C.2       1 <0>         0.2128
      8 N1          1.1976   -0.6667   -0.0130 N.pl3     1 <0>        -0.6315
      9 C7          2.6164   -2.5393    0.7683 C.3       1 <0>        -0.0993
     10 C8          2.4294   -3.6328    1.8224 C.3       1 <0>        -0.1099
     11 C9          1.5207   -4.7201    1.2396 C.3       1 <0>        -0.1697
     12 C10         0.2235   -4.0939    0.8060 C.2       1 <0>         0.4020
     13 O1         -0.7914   -4.7620    0.8083 O.2       1 <0>        -0.4642
     14 C11        -1.5029   -2.6638   -1.4036 C.ar      1 <0>        -0.0270
     15 C12        -2.6297   -3.4355   -1.6203 C.ar      1 <0>        -0.1500
     16 C13        -2.9339   -3.8742   -2.8987 C.ar      1 <0>         0.1113
     17 C14        -2.1038   -3.5361   -3.9632 C.ar      1 <0>         0.0958
     18 C15        -0.9761   -2.7619   -3.7397 C.ar      1 <0>        -0.0841
     19 C16        -0.6808   -2.3232   -2.4612 C.ar      1 <0>        -0.1060
     20 Br1         0.1551   -2.2999   -5.1829 Br        1 <0>        -0.0328
     21 O2         -2.3982   -3.9648   -5.2200 O.3       1 <0>        -0.4736
     22 O3         -4.0413   -4.6340   -3.1129 O.3       1 <0>        -0.3039
     23 C17        -4.8467   -4.9424   -1.9735 C.3       1 <0>         0.0234
     24 C18        -2.3795    0.0213    0.0215 C.2       1 <0>         0.5212
     25 O4         -2.3779    1.2381    0.0350 O.2       1 <0>        -0.5216
     26 O5         -3.5490   -0.6519    0.0235 O.3       1 <0>        -0.3411
     27 C19        -4.7464    0.1278    0.0418 C.3       1 <0>         0.0814
     28 C20        -5.8613   -0.6327   -0.6790 C.3       1 <0>        -0.1496
     29 C21        -5.1621    0.3902    1.4907 C.3       1 <0>        -0.1705
     30 H2          1.0042    1.8801    0.0026 H         1 <0>         0.0639
     31 H3         -0.5455    1.8639   -0.8728 H         1 <0>         0.1024
     32 H4         -0.5286    1.8543    0.9071 H         1 <0>         0.1038
     33 H5          2.0002   -0.2028   -0.2984 H         1 <0>         0.4220
     34 H6          3.1037   -2.9617   -0.1104 H         1 <0>         0.1022
     35 H7          3.2363   -1.7420    1.1785 H         1 <0>         0.0930
     36 H8          3.3974   -4.0632    2.0791 H         1 <0>         0.0887
     37 H9          1.9668   -3.2076    2.7131 H         1 <0>         0.0754
     38 H10         2.0082   -5.1809    0.3805 H         1 <0>         0.1016
     39 H11         1.3246   -5.4771    1.9989 H         1 <0>         0.0985
     40 H12        -3.2725   -3.6966   -0.7926 H         1 <0>         0.1407
     41 H13         0.1961   -1.7169   -2.2886 H         1 <0>         0.1265
     42 H14        -2.9586   -3.3571   -5.7217 H         1 <0>         0.3878
     43 H15        -5.2084   -4.0180   -1.5232 H         1 <0>         0.0577
     44 H16        -5.6956   -5.5522   -2.2829 H         1 <0>         0.1027
     45 H17        -4.2506   -5.4923   -1.2452 H         1 <0>         0.0598
     46 H18        -4.5693    1.0775   -0.4630 H         1 <0>         0.0826
     47 H19        -6.0384   -1.5824   -0.1742 H         1 <0>         0.0659
     48 H20        -6.7747   -0.0379   -0.6650 H         1 <0>         0.0775
     49 H21        -5.5652   -0.8196   -1.7112 H         1 <0>         0.0626
     50 H22        -6.0754    0.9849    1.5046 H         1 <0>         0.0729
     51 H23        -5.3392   -0.5595    1.9955 H         1 <0>         0.0649
     52 H24        -4.3678    0.9320    2.0041 H         1 <0>         0.0603
@<TRIPOS>BOND
     1    1    2 1
     2    1   30 1
     3    1   31 1
     4    1   32 1
     5    2    8 1
     6    2    3 2
     7    3    4 1
     8    3   24 1
     9    4    5 1
    10    4    6 1
    11    4   14 1
    12    6   12 1
    13    6    7 2
    14    7    8 1
    15    7    9 1
    16    8   33 1
    17    9   10 1
    18    9   34 1
    19    9   35 1
    20   10   11 1
    21   10   36 1
    22   10   37 1
    23   11   12 1
    24   11   38 1
    25   11   39 1
    26   12   13 2
    27   14   19 ar
    28   14   15 ar
    29   15   16 ar
    30   15   40 1
    31   16   17 ar
    32   16   22 1
    33   17   18 ar
    34   17   21 1
    35   18   19 ar
    36   18   20 1
    37   19   41 1
    38   21   42 1
    39   22   23 1
    40   23   43 1
    41   23   44 1
    42   23   45 1
    43   24   25 2
    44   24   26 1
    45   26   27 1
    46   27   28 1
    47   27   29 1
    48   27   46 1
    49   28   47 1
    50   28   48 1
    51   28   49 1
    52   29   50 1
    53   29   51 1
    54   29   52 1
@<TRIPOS>MOLECULE
ZINC36705831
   53    56     0     0     0
SMALL
USER_CHARGES

@<TRIPOS>ATOM
      1 C1         -0.0378    1.5251    0.0305 C.3       1 <0>        -0.1572
      2 C2          0.0021   -0.0041    0.0020 C.3       1 <0>         0.1865
      3 H1         -1.0137   -0.3927   -0.0706 H         1 <0>         0.1034
      4 C3          0.8022   -0.4636   -1.1895 C.ar      1 <0>        -0.1275
      5 C4          2.1548   -0.7159   -1.0583 C.ar      1 <0>        -0.0895
      6 C5          2.8889   -1.1375   -2.1510 C.ar      1 <0>        -0.1228
      7 C6          2.2713   -1.3072   -3.3763 C.ar      1 <0>        -0.0890
      8 C7          0.9191   -1.0560   -3.5098 C.ar      1 <0>        -0.1475
      9 C8          0.1816   -0.6387   -2.4145 C.ar      1 <0>         0.1098
     10 F1         -1.1415   -0.3973   -2.5427 F         1 <0>        -0.1334
     11 N1          0.6277   -0.4992    1.2307 N.am      1 <0>        -0.7214
     12 C9         -0.1218   -0.7100    2.3309 C.2       1 <0>         0.5028
     13 O1         -1.3142   -0.4898    2.3037 O.2       1 <0>        -0.5178
     14 C10         0.5217   -1.2193    3.5948 C.3       1 <0>         0.0990
     15 N2         -0.4972   -1.3643    4.6374 N.am      1 <0>        -0.5599
     16 C11        -0.8412   -0.3883    5.5007 C.2       1 <0>         0.5434
     17 O2         -0.3832    0.7327    5.5589 O.2       1 <0>        -0.4544
     18 C12        -1.9204   -0.9834    6.3832 C.3       1 <0>         0.1685
     19 N3         -2.0735   -2.3543    5.8662 N.am      1 <0>        -0.7154
     20 C13        -1.2052   -2.4801    4.8464 C.2       1 <0>         0.7120
     21 O3         -1.0760   -3.4951    4.1904 O.2       1 <0>        -0.5346
     22 C14        -1.4684   -1.0067    7.8448 C.3       1 <0>        -0.1442
     23 C15        -3.2083   -0.2147    6.2373 C.ar      1 <0>        -0.0885
     24 C16        -3.1658    1.1433    5.9263 C.ar      1 <0>        -0.1097
     25 C17        -4.3102    1.8666    5.7879 C.ar      1 <0>        -0.0958
     26 C18        -5.5553    1.2379    5.9599 C.ar      1 <0>        -0.0448
     27 C19        -6.7583    1.9517    5.8244 C.ar      1 <0>        -0.1068
     28 C20        -7.9456    1.3093    5.9978 C.ar      1 <0>        -0.1117
     29 C21        -7.9881   -0.0487    6.3085 C.ar      1 <0>        -0.1150
     30 C22        -6.8436   -0.7719    6.4474 C.ar      1 <0>        -0.1037
     31 C23        -5.5986   -0.1430    6.2757 C.ar      1 <0>        -0.0520
     32 C24        -4.3957   -0.8581    6.4057 C.ar      1 <0>        -0.0779
     33 H2          0.9780    1.9138    0.1031 H         1 <0>         0.0626
     34 H3         -0.5033    1.8936   -0.8837 H         1 <0>         0.0700
     35 H4         -0.6165    1.8575    0.8923 H         1 <0>         0.0683
     36 H5          2.6384   -0.5833   -0.1018 H         1 <0>         0.1299
     37 H6          3.9458   -1.3340   -2.0476 H         1 <0>         0.1335
     38 H7          2.8460   -1.6359   -4.2296 H         1 <0>         0.1358
     39 H8          0.4370   -1.1884   -4.4671 H         1 <0>         0.1392
     40 H9          1.5813   -0.6754    1.2525 H         1 <0>         0.4013
     41 H10         0.9848   -2.1871    3.4022 H         1 <0>         0.1314
     42 H11         1.2822   -0.5121    3.9258 H         1 <0>         0.1294
     43 H12        -2.6836   -3.0329    6.1950 H         1 <0>         0.4410
     44 H13        -1.2733    0.0116    8.1810 H         1 <0>         0.0885
     45 H14        -2.2518   -1.4488    8.4603 H         1 <0>         0.0842
     46 H15        -0.5581   -1.5996    7.9342 H         1 <0>         0.0743
     47 H16        -2.2103    1.6288    5.7936 H         1 <0>         0.1400
     48 H17        -4.2619    2.9184    5.5474 H         1 <0>         0.1320
     49 H18        -6.7408    3.0045    5.5843 H         1 <0>         0.1290
     50 H19        -8.8686    1.8603    5.8935 H         1 <0>         0.1250
     51 H20        -8.9436   -0.5343    6.4413 H         1 <0>         0.1250
     52 H21        -6.8919   -1.8234    6.6887 H         1 <0>         0.1281
     53 H22        -4.4134   -1.9118    6.6418 H         1 <0>         0.1265
@<TRIPOS>BOND
     1    1    2 1
     2    1   33 1
     3    1   34 1
     4    1   35 1
     5    2    3 1
     6    2    4 1
     7    2   11 1
     8    4    9 ar
     9    4    5 ar
    10    5    6 ar
    11    5   36 1
    12    6    7 ar
    13    6   37 1
    14    7    8 ar
    15    7   38 1
    16    8    9 ar
    17    8   39 1
    18    9   10 1
    19   11   12 am
    20   11   40 1
    21   12   13 2
    22   12   14 1
    23   14   15 1
    24   14   41 1
    25   14   42 1
    26   15   20 am
    27   15   16 am
    28   16   17 2
    29   16   18 1
    30   18   19 1
    31   18   22 1
    32   18   23 1
    33   19   20 am
    34   19   43 1
    35   20   21 2
    36   22   44 1
    37   22   45 1
    38   22   46 1
    39   23   32 ar
    40   23   24 ar
    41   24   25 ar
    42   24   47 1
    43   25   26 ar
    44   25   48 1
    45   26   31 ar
    46   26   27 ar
    47   27   28 ar
    48   27   49 1
    49   28   29 ar
    50   28   50 1
    51   29   30 ar
    52   29   51 1
    53   30   31 ar
    54   30   52 1
    55   31   32 ar
    56   32   53 1
@<TRIPOS>MOLECULE
ZINC00985827
   58    61     0     0     0
SMALL
USER_CHARGES

@<TRIPOS>ATOM
      1 C1         -0.0187    1.5258    0.0104 C.3       1 <0>        -0.1490
      2 C2          0.0021   -0.0041    0.0020 C.3       1 <0>        -0.0897
      3 C3          0.7421   -0.5109    1.2415 C.3       1 <0>        -0.1518
      4 C4         -1.4333   -0.5336    0.0129 C.3       1 <0>        -0.0804
      5 C5         -1.4159   -2.0348   -0.1192 C.ar      1 <0>        -0.0639
      6 C6         -1.4498   -2.6166   -1.3736 C.ar      1 <0>        -0.1189
      7 C7         -1.4336   -3.9908   -1.5004 C.ar      1 <0>        -0.0825
      8 C8         -1.3831   -4.7923   -0.3618 C.ar      1 <0>        -0.0215
      9 C9         -1.3491   -4.2010    0.8992 C.ar      1 <0>        -0.0876
     10 C10        -1.3604   -2.8256    1.0143 C.ar      1 <0>        -0.1160
     11 C11        -1.3660   -6.2707   -0.4919 C.2       1 <0>         0.1630
     12 C12        -0.6803   -7.1616    0.3392 C.2       1 <0>        -0.2442
     13 C13        -0.9192   -8.4279   -0.1105 C.2       1 <0>         0.2717
     14 N1         -1.7259   -8.3355   -1.1881 N.pl3     1 <0>        -0.4469
     15 H1         -2.0610   -9.0777   -1.7150 H         1 <0>         0.4475
     16 N2         -1.9997   -6.9767   -1.4090 N.2       1 <0>        -0.2521
     17 O1         -0.3959   -9.5279    0.4864 O.3       1 <0>        -0.2306
     18 C14         0.1525   -9.3740    1.7087 C.2       1 <0>         0.4336
     19 C15         0.4462   -8.1734    2.2554 C.2       1 <0>        -0.2524
     20 C16         0.1889   -6.8729    1.5357 C.3       1 <0>         0.1258
     21 H2         -0.3223   -6.1786    2.2026 H         1 <0>         0.0933
     22 C17         1.4957   -6.2748    1.0823 C.ar      1 <0>        -0.1286
     23 C18         2.3214   -6.9861    0.2310 C.ar      1 <0>        -0.0505
     24 C19         3.5197   -6.4410   -0.1863 C.ar      1 <0>        -0.1976
     25 C20         3.8952   -5.1768    0.2500 C.ar      1 <0>         0.2151
     26 C21         3.0634   -4.4651    1.1051 C.ar      1 <0>        -0.1935
     27 C22         1.8639   -5.0138    1.5141 C.ar      1 <0>        -0.0552
     28 N3          5.1067   -4.6226   -0.1698 N.pl3     1 <0>        -0.6394
     29 C23         5.9829   -5.3749   -1.0713 C.3       1 <0>         0.0937
     30 C24         5.5011   -3.2892    0.2913 C.3       1 <0>         0.0937
     31 C25         1.0227   -8.1344    3.5656 C.1       1 <0>         0.2725
     32 N4          1.4801   -8.1035    4.6050 N.1       1 <0>        -0.4393
     33 N5          0.4280  -10.5023    2.4404 N.pl3     1 <0>        -0.8326
     34 H3          1.0039    1.9031    0.0027 H         1 <0>         0.0550
     35 H4         -0.5459    1.8868   -0.8726 H         1 <0>         0.0542
     36 H5         -0.5289    1.8773    0.9072 H         1 <0>         0.0550
     37 H6          0.5123   -0.3556   -0.8948 H         1 <0>         0.0704
     38 H7          0.7568   -1.6008    1.2356 H         1 <0>         0.0621
     39 H8          1.7647   -0.1336    1.2338 H         1 <0>         0.0518
     40 H9          0.2319   -0.1594    2.1383 H         1 <0>         0.0535
     41 H10        -1.9156   -0.2570    0.9504 H         1 <0>         0.0735
     42 H11        -1.9862   -0.1019   -0.8214 H         1 <0>         0.0727
     43 H12        -1.4893   -1.9943   -2.2555 H         1 <0>         0.1235
     44 H13        -1.4604   -4.4441   -2.4803 H         1 <0>         0.1253
     45 H14        -1.3103   -4.8177    1.7850 H         1 <0>         0.1274
     46 H15        -1.3296   -2.3661    1.9911 H         1 <0>         0.1257
     47 H16         2.0290   -7.9691   -0.1075 H         1 <0>         0.1091
     48 H17         4.1642   -6.9971   -0.8509 H         1 <0>         0.1181
     49 H18         3.3526   -3.4821    1.4465 H         1 <0>         0.1201
     50 H19         1.2147   -4.4592    2.1754 H         1 <0>         0.1182
     51 H20         5.7274   -5.1414   -2.1049 H         1 <0>         0.0471
     52 H21         7.0206   -5.0999   -0.8826 H         1 <0>         0.0651
     53 H22         5.8526   -6.4429   -0.8972 H         1 <0>         0.0676
     54 H23         6.0718   -3.3786    1.2157 H         1 <0>         0.0469
     55 H24         6.1155   -2.8085   -0.4699 H         1 <0>         0.0649
     56 H25         4.6096   -2.6885    0.4713 H         1 <0>         0.0691
     57 H26         0.2281  -11.3783    2.0748 H         1 <0>         0.4106
     58 H27         0.8226  -10.4237    3.3230 H         1 <0>         0.4275
@<TRIPOS>BOND
     1    1    2 1
     2    1   34 1
     3    1   35 1
     4    1   36 1
     5    2    3 1
     6    2    4 1
     7    2   37 1
     8    3   38 1
     9    3   39 1
    10    3   40 1
    11    4    5 1
    12    4   41 1
    13    4   42 1
    14    5   10 ar
    15    5    6 ar
    16    6    7 ar
    17    6   43 1
    18    7    8 ar
    19    7   44 1
    20    8    9 ar
    21    8   11 1
    22    9   10 ar
    23    9   45 1
    24   10   46 1
    25   11   16 2
    26   11   12 1
    27   12   20 1
    28   12   13 2
    29   13   14 1
    30   13   17 1
    31   14   15 1
    32   14   16 1
    33   17   18 1
    34   18   19 2
    35   18   33 1
    36   19   20 1
    37   19   31 1
    38   20   21 1
    39   20   22 1
    40   22   27 ar
    41   22   23 ar
    42   23   24 ar
    43   23   47 1
    44   24   25 ar
    45   24   48 1
    46   25   26 ar
    47   25   28 1
    48   26   27 ar
    49   26   49 1
    50   27   50 1
    51   28   29 1
    52   28   30 1
    53   29   51 1
    54   29   52 1
    55   29   53 1
    56   30   54 1
    57   30   55 1
    58   30   56 1
    59   31   32 3
    60   33   57 1
    61   33   58 1
@<TRIPOS>MOLECULE
ZINC09092489
   51    53     0     0     0
SMALL
USER_CHARGES
2-[[4-amino-5-(2-bromophenyl)-1,2,4-triazol-3-yl]sulfanyl]-N-[(2-methylcyclohexyl)carbamoyl]acetamide
@<TRIPOS>ATOM
      1 C1          3.0466   -0.5928   -2.3156 C.3       1 <0>        -0.1489
      2 C2          2.2138   -0.0062   -1.1739 C.3       1 <0>        -0.0975
      3 H1          2.6701   -0.2686   -0.2194 H         1 <0>         0.0766
      4 C3          0.7944   -0.5742   -1.2340 C.3       1 <0>        -0.1120
      5 C4         -0.0383    0.0124   -0.0924 C.3       1 <0>        -0.1229
      6 C5         -0.0921    1.5352   -0.2305 C.3       1 <0>        -0.1177
      7 C6          1.3273    2.1032   -0.1705 C.3       1 <0>        -0.1313
      8 C7          2.1600    1.5166   -1.3121 C.3       1 <0>         0.1660
      9 H2          1.7038    1.7789   -2.2666 H         1 <0>         0.0920
     10 N1          3.5191    2.0604   -1.2546 N.am      1 <0>        -0.7307
     11 C8          3.7959    3.2454   -1.8341 C.2       1 <0>         0.6955
     12 O1          2.9179    3.8627   -2.4043 O.2       1 <0>        -0.5244
     13 N2          5.0462    3.7457   -1.7812 N.am      1 <0>        -0.6862
     14 C9          5.3229    4.9307   -2.3606 C.2       1 <0>         0.5404
     15 O2          4.4472    5.5465   -2.9295 O.2       1 <0>        -0.4490
     16 C10         6.7210    5.4901   -2.3015 C.3       1 <0>        -0.1628
     17 S1          6.7713    7.0808   -3.1637 S.3       1 <0>         0.1248
     18 C11         8.4702    7.4938   -2.9449 C.2       1 <0>         0.1759
     19 N3          9.3720    6.7758   -2.3135 N.2       1 <0>        -0.2889
     20 N4         10.5103    7.3716   -2.3433 N.2       1 <0>        -0.2256
     21 C12        10.4054    8.5061   -2.9952 C.2       1 <0>         0.1790
     22 N5          9.0966    8.6168   -3.4050 N.pl3     1 <0>        -0.2978
     23 N6          8.5394    9.6382   -4.1207 N.3       1 <0>        -0.5817
     24 C13        11.4901    9.4785   -3.2467 C.ar      1 <0>         0.0006
     25 C14        11.2816   10.8382   -3.0097 C.ar      1 <0>        -0.1016
     26 C15        12.2978   11.7403   -3.2465 C.ar      1 <0>        -0.0988
     27 C16        13.5224   11.3005   -3.7176 C.ar      1 <0>        -0.0938
     28 C17        13.7365    9.9547   -3.9548 C.ar      1 <0>        -0.0872
     29 C18        12.7297    9.0402   -3.7170 C.ar      1 <0>        -0.0550
     30 Br1        13.0264    7.1998   -4.0343 Br        1 <0>        -0.0173
     31 H3          2.5904   -0.3305   -3.2701 H         1 <0>         0.0572
     32 H4          4.0578   -0.1882   -2.2728 H         1 <0>         0.0544
     33 H5          3.0849   -1.6777   -2.2171 H         1 <0>         0.0590
     34 H6          0.8328   -1.6591   -1.1356 H         1 <0>         0.0691
     35 H7          0.3382   -0.3119   -2.1885 H         1 <0>         0.0667
     36 H8          0.4179   -0.2500    0.8622 H         1 <0>         0.0630
     37 H9         -1.0495   -0.3923   -0.1352 H         1 <0>         0.0654
     38 H10        -0.5484    1.7975   -1.1851 H         1 <0>         0.0656
     39 H11        -0.6854    1.9530    0.5828 H         1 <0>         0.0662
     40 H12         1.2889    3.1880   -0.2689 H         1 <0>         0.0691
     41 H13         1.7835    1.8408    0.7841 H         1 <0>         0.0642
     42 H14         4.2198    1.5677   -0.7995 H         1 <0>         0.3981
     43 H15         5.7469    3.2530   -1.3260 H         1 <0>         0.4132
     44 H16         7.0120    5.6317   -1.2606 H         1 <0>         0.1345
     45 H17         7.4110    4.7953   -2.7803 H         1 <0>         0.1350
     46 H18         8.2570   10.3931   -3.5137 H         1 <0>         0.3684
     47 H19         9.1719    9.9661   -4.8352 H         1 <0>         0.3791
     48 H20        10.3265   11.1832   -2.6421 H         1 <0>         0.1277
     49 H21        12.1375   12.7926   -3.0635 H         1 <0>         0.1396
     50 H22        14.3145   12.0113   -3.9013 H         1 <0>         0.1410
     51 H23        14.6945    9.6181   -4.3228 H         1 <0>         0.1438
@<TRIPOS>BOND
     1    1    2 1
     2    1   31 1
     3    1   32 1
     4    1   33 1
     5    2    3 1
     6    2    8 1
     7    2    4 1
     8    4    5 1
     9    4   34 1
    10    4   35 1
    11    5    6 1
    12    5   36 1
    13    5   37 1
    14    6    7 1
    15    6   38 1
    16    6   39 1
    17    7    8 1
    18    7   40 1
    19    7   41 1
    20    8    9 1
    21    8   10 1
    22   10   11 am
    23   10   42 1
    24   11   12 2
    25   11   13 am
    26   13   14 am
    27   13   43 1
    28   14   15 2
    29   14   16 1
    30   16   17 1
    31   16   44 1
    32   16   45 1
    33   17   18 1
    34   18   22 1
    35   18   19 2
    36   19   20 1
    37   20   21 2
    38   21   22 1
    39   21   24 1
    40   22   23 1
    41   23   46 1
    42   23   47 1
    43   24   29 ar
    44   24   25 ar
    45   25   26 ar
    46   25   48 1
    47   26   27 ar
    48   26   49 1
    49   27   28 ar
    50   27   50 1
    51   28   29 ar
    52   28   51 1
    53   29   30 1
@<TRIPOS>MOLECULE
ZINC21318890
   60    64     0     0     0
SMALL
USER_CHARGES
1-(2-adamantyl)-2-[[4-amino-5-[(N'E)-N'-[(2-hydroxy-3-methoxy-phenyl)methylene]hydrazino]-1,2,4-triazol-3-yl]sulfanyl]ethanone
@<TRIPOS>ATOM
      1 C1        -10.8121   -5.0688    6.3904 C.3       1 <0>         0.0220
      2 O1         -9.5860   -4.9484    5.6664 O.3       1 <0>        -0.3029
      3 C2         -8.9671   -6.1039    5.3037 C.ar      1 <0>         0.0737
      4 C3         -9.5297   -7.3263    5.6387 C.ar      1 <0>        -0.1484
      5 C4         -8.9058   -8.5062    5.2732 C.ar      1 <0>        -0.1359
      6 C5         -7.7179   -8.4776    4.5729 C.ar      1 <0>        -0.0782
      7 C6         -7.1392   -7.2531    4.2290 C.ar      1 <0>        -0.1438
      8 C7         -7.7684   -6.0595    4.6033 C.ar      1 <0>         0.1955
      9 O2         -7.2114   -4.8628    4.2783 O.3       1 <0>        -0.5086
     10 C8         -5.8697   -7.2180    3.4812 C.2       1 <0>         0.1480
     11 N1         -5.3347   -6.0782    3.1632 N.2       1 <0>        -0.2470
     12 N2         -4.1279   -6.0448    2.4523 N.pl3     1 <0>        -0.5530
     13 C9         -3.5563   -4.8272    2.1126 C.2       1 <0>         0.4818
     14 N3         -4.0413   -3.6426    2.3958 N.2       1 <0>        -0.3198
     15 N4         -3.1647   -2.6807    1.8769 N.2       1 <0>        -0.2981
     16 C10        -2.1724   -3.3095    1.2934 C.2       1 <0>         0.1803
     17 N5         -2.3909   -4.6520    1.4193 N.pl3     1 <0>        -0.2606
     18 N6         -1.5853   -5.6451    0.9392 N.3       1 <0>        -0.7772
     19 S1         -0.8019   -2.5548    0.4828 S.3       1 <0>         0.0450
     20 C11        -1.1116   -0.7764    0.6611 C.3       1 <0>        -0.1719
     21 C12         0.0021   -0.0041    0.0020 C.2       1 <0>         0.3851
     22 O3          0.9108   -0.5927   -0.5328 O.2       1 <0>        -0.4252
     23 C13        -0.0184    1.5028    0.0103 C.3       1 <0>        -0.1143
     24 C14        -1.0711    2.0040   -0.9804 C.3       1 <0>        -0.0739
     25 C15        -1.0918    3.5338   -0.9720 C.3       1 <0>        -0.1071
     26 C16         0.2844    4.0648   -1.3781 C.3       1 <0>        -0.0879
     27 C17         0.6287    3.5671   -2.7834 C.3       1 <0>        -0.1101
     28 C18         0.6494    2.0373   -2.7918 C.3       1 <0>        -0.0852
     29 C19        -0.7268    1.5063   -2.3856 C.3       1 <0>        -0.1152
     30 C20         1.7021    1.5361   -1.8011 C.3       1 <0>        -0.1306
     31 C21         1.3579    2.0337   -0.3958 C.3       1 <0>        -0.0691
     32 C22         1.3371    3.5636   -0.3874 C.3       1 <0>        -0.1095
     33 H1        -11.2030   -4.0663    6.6188 H         1 <0>         0.1025
     34 H2        -10.6320   -5.6146    7.3283 H         1 <0>         0.0554
     35 H3        -11.5451   -5.6181    5.7814 H         1 <0>         0.0554
     36 H4        -10.4595   -7.3576    6.1872 H         1 <0>         0.1363
     37 H5         -9.3510   -9.4539    5.5378 H         1 <0>         0.1317
     38 H6         -7.2348   -9.4015    4.2908 H         1 <0>         0.1319
     39 H7         -6.2621   -4.8305    3.7236 H         1 <0>         0.4409
     40 H8         -5.3753   -8.1573    3.1924 H         1 <0>         0.1401
     41 H9         -3.6335   -6.9840    2.1635 H         1 <0>         0.4206
     42 H10        -0.6655   -5.3909    0.3921 H         1 <0>         0.4503
     43 H11        -1.8564   -6.6990    1.0997 H         1 <0>         0.4369
     44 H12        -2.0684   -0.5210    0.1822 H         1 <0>         0.1334
     45 H13        -1.1555   -0.5171    1.7292 H         1 <0>         0.1336
     46 H14        -0.2670    1.8458    1.0254 H         1 <0>         0.1043
     47 H15        -2.0606    1.6223   -0.6884 H         1 <0>         0.0787
     48 H16        -1.8486    3.8942   -1.6843 H         1 <0>         0.0689
     49 H17        -1.3394    3.8916    0.0383 H         1 <0>         0.0669
     50 H18         0.2694    5.1647   -1.3720 H         1 <0>         0.0717
     51 H19        -0.1281    3.9275   -3.4957 H         1 <0>         0.0613
     52 H20         1.6182    3.9488   -3.0754 H         1 <0>         0.0622
     53 H21         0.8969    1.6796   -3.8021 H         1 <0>         0.0693
     54 H22        -0.7118    0.4064   -2.3916 H         1 <0>         0.0602
     55 H23        -1.4837    1.8665   -3.0979 H         1 <0>         0.0684
     56 H24         1.7170    0.4362   -1.8072 H         1 <0>         0.0983
     57 H25         2.6916    1.9178   -2.0931 H         1 <0>         0.0593
     58 H26         2.1148    1.6733    0.3164 H         1 <0>         0.0734
     59 H27         2.3265    3.9454   -0.6794 H         1 <0>         0.0668
     60 H28         1.0896    3.9214    0.6229 H         1 <0>         0.0637
@<TRIPOS>BOND
     1    1    2 1
     2    1   33 1
     3    1   34 1
     4    1   35 1
     5    2    3 1
     6    3    8 ar
     7    3    4 ar
     8    4    5 ar
     9    4   36 1
    10    5    6 ar
    11    5   37 1
    12    6    7 ar
    13    6   38 1
    14    7    8 ar
    15    7   10 1
    16    8    9 1
    17    9   39 1
    18   10   11 2
    19   10   40 1
    20   11   12 1
    21   12   13 1
    22   12   41 1
    23   13   17 1
    24   13   14 2
    25   14   15 1
    26   15   16 2
    27   16   17 1
    28   16   19 1
    29   17   18 1
    30   18   42 1
    31   18   43 1
    32   19   20 1
    33   20   21 1
    34   20   44 1
    35   20   45 1
    36   21   22 2
    37   21   23 1
    38   23   31 1
    39   23   24 1
    40   23   46 1
    41   24   29 1
    42   24   25 1
    43   24   47 1
    44   25   26 1
    45   25   48 1
    46   25   49 1
    47   26   32 1
    48   26   27 1
    49   26   50 1
    50   27   28 1
    51   27   51 1
    52   27   52 1
    53   28   29 1
    54   28   30 1
    55   28   53 1
    56   29   54 1
    57   29   55 1
    58   30   31 1
    59   30   56 1
    60   30   57 1
    61   31   32 1
    62   31   58 1
    63   32   59 1
    64   32   60 1
@<TRIPOS>MOLECULE
ZINC39361709
   54    57     0     0     0
SMALL
USER_CHARGES

@<TRIPOS>ATOM
      1 C1          2.0326   -1.7157   -1.9167 C.3       1 <0>        -0.1181
      2 C2          0.9193   -1.5469   -0.9152 C.ar      1 <0>        -0.0702
      3 C3         -0.1320   -0.6907   -1.1887 C.ar      1 <0>        -0.1154
      4 C4         -1.1556   -0.5328   -0.2725 C.ar      1 <0>        -0.0983
      5 C5         -1.1313   -1.2301    0.9194 C.ar      1 <0>        -0.1202
      6 C6         -0.0773   -2.0911    1.1972 C.ar      1 <0>         0.1623
      7 C7          0.9470   -2.2514    0.2720 C.ar      1 <0>        -0.1202
      8 N1         -0.0493   -2.7978    2.4023 N.pl3     1 <0>        -0.5788
      9 C8         -0.1332   -4.2587    2.5684 C.3       1 <0>         0.3799
     10 H1          0.7047   -4.7488    2.0725 H         1 <0>         0.0772
     11 N2         -0.0569   -4.4542    4.0265 N.pl3     1 <0>        -0.6545
     12 N3          0.0595   -3.1759    4.5859 N.2       1 <0>        -0.2949
     13 C9          0.0691   -2.2609    3.6763 C.2       1 <0>         0.2598
     14 S1          0.2102   -0.5369    4.0118 S.3       1 <0>         0.0784
     15 C10         0.3312   -0.4501    5.8197 C.3       1 <0>        -0.1519
     16 C11         0.4584    0.9898    6.2460 C.2       1 <0>         0.5387
     17 O1          0.4667    1.8707    5.4123 O.2       1 <0>        -0.4981
     18 N4          0.5631    1.2986    7.5538 N.am      1 <0>        -0.6650
     19 C12         0.5617    2.6391    7.9590 C.ar      1 <0>         0.1144
     20 C13        -0.1973    3.5739    7.2683 C.ar      1 <0>        -0.0935
     21 C14        -0.1972    4.8954    7.6705 C.ar      1 <0>        -0.1077
     22 C15         0.5581    5.2890    8.7598 C.ar      1 <0>        -0.1024
     23 C16         1.3162    4.3619    9.4509 C.ar      1 <0>        -0.1341
     24 C17         1.3160    3.0359    9.0576 C.ar      1 <0>         0.0738
     25 F1          2.0522    2.1288    9.7361 F         1 <0>        -0.1364
     26 C18        -1.4615   -4.7858    2.0219 C.3       1 <0>        -0.1225
     27 C19        -1.5219   -6.2805    2.2038 C.2       1 <0>         0.2063
     28 N5         -0.9560   -7.1096    1.2738 N.am      1 <0>        -0.6345
     29 C20        -1.0041   -8.4454    1.4271 C.2       1 <0>         0.7015
     30 O2         -0.4948   -9.1636    0.5886 O.2       1 <0>        -0.5351
     31 N6         -1.6076   -8.9978    2.4959 N.am      1 <0>        -0.6589
     32 C21        -2.1771   -8.2152    3.4346 C.2       1 <0>         0.5503
     33 O3         -2.7234   -8.7142    4.4019 O.2       1 <0>        -0.5082
     34 C22        -2.1297   -6.8079    3.2880 C.2       1 <0>        -0.2862
     35 H2          1.7844   -2.5257   -2.6027 H         1 <0>         0.0733
     36 H3          2.1596   -0.7902   -2.4782 H         1 <0>         0.0708
     37 H4          2.9589   -1.9534   -1.3937 H         1 <0>         0.0679
     38 H5         -0.1533   -0.1439   -2.1198 H         1 <0>         0.1273
     39 H6         -1.9748    0.1369   -0.4891 H         1 <0>         0.1307
     40 H7         -1.9307   -1.1058    1.6349 H         1 <0>         0.1281
     41 H8          1.7661   -2.9229    0.4831 H         1 <0>         0.1243
     42 H9         -0.0822   -5.2986    4.5032 H         1 <0>         0.4478
     43 H10        -0.5645   -0.8831    6.2650 H         1 <0>         0.1303
     44 H11         1.2077   -1.0063    6.1523 H         1 <0>         0.1285
     45 H12         0.6394    0.5923    8.2143 H         1 <0>         0.4176
     46 H13        -0.7872    3.2682    6.4168 H         1 <0>         0.1446
     47 H14        -0.7878    5.6226    7.1329 H         1 <0>         0.1360
     48 H15         0.5562    6.3231    9.0714 H         1 <0>         0.1366
     49 H16         1.9053    4.6725   10.3011 H         1 <0>         0.1413
     50 H17        -2.2865   -4.3205    2.5612 H         1 <0>         0.1133
     51 H18        -1.5391   -4.5453    0.9615 H         1 <0>         0.1035
     52 H19        -1.6332   -9.9628    2.5910 H         1 <0>         0.4332
     53 H20        -2.5768   -6.1648    4.0316 H         1 <0>         0.1721
     54 H21        -0.5164   -6.7307    0.4966 H         1 <0>         0.4354
@<TRIPOS>BOND
     1    1    2 1
     2    1   35 1
     3    1   36 1
     4    1   37 1
     5    2    7 ar
     6    2    3 ar
     7    3    4 ar
     8    3   38 1
     9    4    5 ar
    10    4   39 1
    11    5    6 ar
    12    5   40 1
    13    6    7 ar
    14    6    8 1
    15    7   41 1
    16    8   13 1
    17    8    9 1
    18    9   10 1
    19    9   11 1
    20    9   26 1
    21   11   12 1
    22   11   42 1
    23   12   13 2
    24   13   14 1
    25   14   15 1
    26   15   16 1
    27   15   43 1
    28   15   44 1
    29   16   17 2
    30   16   18 am
    31   18   19 1
    32   18   45 1
    33   19   24 ar
    34   19   20 ar
    35   20   21 ar
    36   20   46 1
    37   21   22 ar
    38   21   47 1
    39   22   23 ar
    40   22   48 1
    41   23   24 ar
    42   23   49 1
    43   24   25 1
    44   26   50 1
    45   26   51 1
    46   26   27 1
    47   27   34 2
    48   27   28 1
    49   28   29 am
    50   28   54 1
    51   29   30 2
    52   29   31 am
    53   31   52 1
    54   31   32 am
    55   32   33 2
    56   32   34 1
    57   34   53 1
@<TRIPOS>MOLECULE
ZINC20058151
   54    57     0     0     0
SMALL
USER_CHARGES

@<TRIPOS>ATOM
      1 C1         -2.0359    0.6004    0.0778 C.3       1 <0>        -0.1268
      2 C2         -1.7169   -0.8722    0.1026 C.ar      1 <0>        -0.0239
      3 C3         -1.6862   -1.5928   -1.0767 C.ar      1 <0>        -0.1444
      4 C4         -1.3936   -2.9436   -1.0539 C.ar      1 <0>        -0.0115
      5 C5         -1.1312   -3.5738    0.1481 C.ar      1 <0>        -0.7064
      6 C6         -1.1610   -2.8531    1.3274 C.ar      1 <0>        -0.0064
      7 C7         -1.4494   -1.5013    1.3041 C.ar      1 <0>        -0.1430
      8 S1         -0.7593   -5.2959    0.1773 S.o2      1 <0>         2.6756
      9 O1         -1.0882   -5.7604    1.4794 O.2       1 <0>        -0.9509
     10 O2         -1.3306   -5.8547   -0.9977 O.2       1 <0>        -0.9335
     11 O3          0.7498   -5.4329    0.0348 O.3       1 <0>        -0.6572
     12 C8          1.4422   -5.1174    1.1609 C.ar      1 <0>         0.0539
     13 C9          1.8607   -3.8123    1.3766 C.ar      1 <0>        -0.1184
     14 C10         2.5639   -3.4941    2.5221 C.ar      1 <0>        -0.1042
     15 C11         2.8508   -4.4751    3.4535 C.ar      1 <0>        -0.0528
     16 C12         2.4353   -5.7764    3.2408 C.ar      1 <0>        -0.0479
     17 C13         1.7267   -6.0986    2.0993 C.ar      1 <0>        -0.0858
     18 C14         2.7501   -6.8430    4.2577 C.3       1 <0>         0.1155
     19 C15         4.2270   -7.1415    4.2318 C.2       1 <0>        -0.2328
     20 C16         4.8187   -8.3345    3.8056 C.2       1 <0>         0.0960
     21 N1          6.1158   -8.2164    3.9293 N.2       1 <0>        -0.2687
     22 N2          6.3957   -6.9423    4.4393 N.pl3     1 <0>        -0.4803
     23 H1          7.2771   -6.5850    4.6303 H         1 <0>         0.4388
     24 C17         5.2214   -6.2966    4.6131 C.2       1 <0>         0.2800
     25 O4          5.0632   -5.0337    5.0854 O.3       1 <0>        -0.4584
     26 C18         4.0878   -9.5485    3.2927 C.3       1 <0>        -0.0843
     27 C19         2.3594   -6.3594    5.6304 C.2       1 <0>        -0.2381
     28 C20         2.8750   -6.7919    6.8038 C.2       1 <0>         0.1016
     29 N3          2.2641   -6.1145    7.7984 N.pl3     1 <0>        -0.4603
     30 N4          1.3407   -5.2344    7.2198 N.2       1 <0>        -0.3003
     31 H2          2.4347   -6.2187    8.7475 H         1 <0>         0.4439
     32 C21         1.4006   -5.3763    5.9177 C.2       1 <0>         0.2801
     33 O5          0.6604   -4.6919    5.0050 O.3       1 <0>        -0.4530
     34 C22         3.9412   -7.8438    6.9708 C.3       1 <0>        -0.0946
     35 H3         -1.1138    1.1700   -0.0383 H         1 <0>         0.0804
     36 H4         -2.7023    0.8138   -0.7579 H         1 <0>         0.0736
     37 H5         -2.5222    0.8826    1.0116 H         1 <0>         0.0739
     38 H6         -1.8911   -1.1004   -2.0158 H         1 <0>         0.1339
     39 H7         -1.3703   -3.5067   -1.9752 H         1 <0>         0.1413
     40 H8         -0.9563   -3.3455    2.2665 H         1 <0>         0.1429
     41 H9         -1.4690   -0.9374    2.2250 H         1 <0>         0.1341
     42 H10         1.6372   -3.0458    0.6493 H         1 <0>         0.1324
     43 H11         2.8902   -2.4784    2.6903 H         1 <0>         0.1319
     44 H12         3.4008   -4.2244    4.3486 H         1 <0>         0.1424
     45 H13         1.3984   -7.1144    1.9356 H         1 <0>         0.1363
     46 H14         2.1922   -7.7485    4.0190 H         1 <0>         0.0979
     47 H15         4.8993   -4.9874    6.0373 H         1 <0>         0.3934
     48 H16         3.9685   -9.4710    2.2120 H         1 <0>         0.0834
     49 H17         4.6598  -10.4450    3.5318 H         1 <0>         0.0787
     50 H18         3.1063   -9.6074    3.7632 H         1 <0>         0.0816
     51 H19        -0.2120   -5.0747    4.8394 H         1 <0>         0.4013
     52 H20         4.9231   -7.3707    6.9604 H         1 <0>         0.0710
     53 H21         3.7967   -8.3602    7.9198 H         1 <0>         0.0737
     54 H22         3.8750   -8.5613    6.1530 H         1 <0>         0.0948
@<TRIPOS>BOND
     1    1    2 1
     2    1   35 1
     3    1   36 1
     4    1   37 1
     5    2    7 ar
     6    2    3 ar
     7    3    4 ar
     8    3   38 1
     9    4    5 ar
    10    4   39 1
    11    5    6 ar
    12    5    8 1
    13    6    7 ar
    14    6   40 1
    15    7   41 1
    16    8    9 2
    17    8   10 2
    18    8   11 1
    19   11   12 1
    20   12   17 ar
    21   12   13 ar
    22   13   14 ar
    23   13   42 1
    24   14   15 ar
    25   14   43 1
    26   15   16 ar
    27   15   44 1
    28   16   17 ar
    29   16   18 1
    30   17   45 1
    31   18   19 1
    32   18   46 1
    33   18   27 1
    34   19   24 2
    35   19   20 1
    36   20   21 2
    37   20   26 1
    38   21   22 1
    39   22   23 1
    40   22   24 1
    41   24   25 1
    42   25   47 1
    43   26   48 1
    44   26   49 1
    45   26   50 1
    46   27   28 2
    47   27   32 1
    48   28   29 1
    49   28   34 1
    50   29   30 1
    51   29   31 1
    52   30   32 2
    53   32   33 1
    54   33   51 1
    55   34   52 1
    56   34   53 1
    57   34   54 1
@<TRIPOS>MOLECULE
ZINC59041496
   51    53     0     0     0
SMALL
USER_CHARGES

@<TRIPOS>ATOM
      1 C1         -1.1951    1.7174   -1.1376 C.3       1 <0>        -0.1533
      2 C2         -1.4147    0.2204   -1.3645 C.3       1 <0>         0.0615
      3 O1         -0.3533   -0.3004   -2.1672 O.3       1 <0>        -0.3430
      4 C3         -0.3970   -1.6156   -2.4615 C.2       1 <0>         0.5535
      5 O2         -1.3118   -2.3011   -2.0475 O.2       1 <0>        -0.4895
      6 C4          0.6602   -2.2199   -3.2820 C.2       1 <0>        -0.1898
      7 C5          0.7856   -3.5132   -3.6852 C.2       1 <0>        -0.0422
      8 C6          1.8827   -3.8977   -4.4759 C.ar      1 <0>        -0.0912
      9 C7          2.1858   -5.1856   -4.9898 C.ar      1 <0>        -0.0910
     10 C8          3.3115   -5.3840   -5.7513 C.ar      1 <0>         0.1616
     11 C9          4.1849   -4.3352   -6.0415 C.ar      1 <0>        -0.0719
     12 C10         3.9198   -3.0814   -5.5603 C.ar      1 <0>        -0.0656
     13 C11         2.7944   -2.8634   -4.7939 C.ar      1 <0>        -0.1142
     14 S1          2.0928   -1.4373   -4.0024 S.3       1 <0>         0.1137
     15 N1          3.5886   -6.6656   -6.2466 N.am      1 <0>        -0.6873
     16 C12         4.1604   -6.8106   -7.4584 C.2       1 <0>         0.7064
     17 O3          4.5113   -5.8303   -8.0864 O.2       1 <0>        -0.5690
     18 N2          4.3433   -8.0423   -7.9741 N.am      1 <0>        -0.7411
     19 C13         4.9649   -8.2000   -9.2914 C.3       1 <0>         0.1428
     20 C14         5.0540   -9.6874   -9.6385 C.3       1 <0>        -0.1022
     21 C15         5.6934   -9.8496  -10.9935 C.ar      1 <0>        -0.0229
     22 C16         4.9082   -9.8626  -12.1311 C.ar      1 <0>        -0.1340
     23 C17         5.4947  -10.0114  -13.3740 C.ar      1 <0>        -0.0148
     24 C18         6.8664  -10.1467  -13.4793 C.ar      1 <0>        -0.6763
     25 C19         7.6516  -10.1328  -12.3417 C.ar      1 <0>        -0.0149
     26 C20         7.0655   -9.9798  -11.0991 C.ar      1 <0>        -0.1341
     27 S2          7.6138  -10.3375  -15.0634 S.o2      1 <0>         2.7012
     28 O4          8.8572  -10.9913  -14.8497 O.2       1 <0>        -0.9624
     29 O5          6.6135  -10.8654  -15.9236 O.2       1 <0>        -0.9624
     30 N3          7.9673   -8.8199  -15.6241 N.pl3     1 <0>        -1.2497
     31 H1         -0.2443    1.8720   -0.6275 H         1 <0>         0.0685
     32 H2         -1.1798    2.2322   -2.0982 H         1 <0>         0.0685
     33 H3         -2.0047    2.1147   -0.5253 H         1 <0>         0.0831
     34 H4         -1.4299   -0.2943   -0.4039 H         1 <0>         0.0719
     35 H5         -2.3655    0.0659   -1.8747 H         1 <0>         0.0718
     36 H6          0.0436   -4.2435   -3.3980 H         1 <0>         0.1497
     37 H7          1.5270   -6.0154   -4.7802 H         1 <0>         0.1346
     38 H8          5.0651   -4.5117   -6.6419 H         1 <0>         0.1563
     39 H9          4.5907   -2.2643   -5.7807 H         1 <0>         0.1408
     40 H10         3.3689   -7.4481   -5.7172 H         1 <0>         0.4095
     41 H11         4.0634   -8.8244   -7.4732 H         1 <0>         0.4002
     42 H12         4.3623   -7.6874  -10.0412 H         1 <0>         0.0740
     43 H13         5.9665   -7.7702   -9.2743 H         1 <0>         0.0743
     44 H14         5.6566  -10.2000   -8.8887 H         1 <0>         0.0885
     45 H15         4.0524  -10.1172   -9.6556 H         1 <0>         0.0884
     46 H16         3.8366   -9.7568  -12.0489 H         1 <0>         0.1362
     47 H17         4.8812  -10.0222  -14.2628 H         1 <0>         0.1453
     48 H18         8.7232  -10.2389  -12.4239 H         1 <0>         0.1453
     49 H19         7.6793   -9.9652  -10.2106 H         1 <0>         0.1363
     50 H20         7.7532   -8.0420  -15.0857 H         1 <0>         0.4171
     51 H21         8.3883   -8.7089  -16.4908 H         1 <0>         0.4220
@<TRIPOS>BOND
     1    1    2 1
     2    1   31 1
     3    1   32 1
     4    1   33 1
     5    2    3 1
     6    2   34 1
     7    2   35 1
     8    3    4 1
     9    4    5 2
    10    4    6 1
    11    6   14 1
    12    6    7 2
    13    7    8 1
    14    7   36 1
    15    8   13 ar
    16    8    9 ar
    17    9   10 ar
    18    9   37 1
    19   10   11 ar
    20   10   15 1
    21   11   12 ar
    22   11   38 1
    23   12   13 ar
    24   12   39 1
    25   13   14 1
    26   15   16 am
    27   15   40 1
    28   16   17 2
    29   16   18 am
    30   18   19 1
    31   18   41 1
    32   19   20 1
    33   19   42 1
    34   19   43 1
    35   20   21 1
    36   20   44 1
    37   20   45 1
    38   21   26 ar
    39   21   22 ar
    40   22   23 ar
    41   22   46 1
    42   23   24 ar
    43   23   47 1
    44   24   25 ar
    45   24   27 1
    46   25   26 ar
    47   25   48 1
    48   26   49 1
    49   27   28 2
    50   27   29 2
    51   27   30 1
    52   30   50 1
    53   30   51 1
@<TRIPOS>MOLECULE
ZINC12958628
   58    62     0     0     0
SMALL
USER_CHARGES
(2S)-2-(9H-fluoren-9-ylmethoxycarbonylamino)-3-[4-(2-pyridyl)phenyl]propanoic acid
@<TRIPOS>ATOM
      1 C1         12.5669   -0.6253   -6.0842 C.ar      1 <0>        -0.1200
      2 C2         12.0112   -0.3814   -4.8410 C.ar      1 <0>        -0.1102
      3 C3         10.6709   -0.0562   -4.7320 C.ar      1 <0>        -0.0822
      4 C4          9.8860    0.0250   -5.8628 C.ar      1 <0>        -0.0789
      5 C5         10.4360   -0.2186   -7.1182 C.ar      1 <0>        -0.0641
      6 C6         11.7896   -0.5452   -7.2208 C.ar      1 <0>        -0.0988
      7 C7          9.3859   -0.0666   -8.1556 C.ar      1 <0>        -0.0452
      8 C8          9.4380   -0.2050   -9.5440 C.ar      1 <0>        -0.0990
      9 C9          8.3011   -0.0064  -10.2992 C.ar      1 <0>        -0.1169
     10 C10         7.1072    0.3298   -9.6865 C.ar      1 <0>        -0.1156
     11 C11         7.0482    0.4687   -8.3113 C.ar      1 <0>        -0.0942
     12 C12         8.1800    0.2720   -7.5484 C.ar      1 <0>        -0.0849
     13 C13         8.4258    0.3499   -6.0616 C.3       1 <0>        -0.0083
     14 C14         8.1258    1.7607   -5.5512 C.3       1 <0>         0.1095
     15 O1          8.2523    1.7893   -4.1050 O.3       1 <0>        -0.3730
     16 C15         8.0191    2.9663   -3.4942 C.2       1 <0>         0.6550
     17 O2          7.7182    3.9428   -4.1517 O.2       1 <0>        -0.5742
     18 N1          8.1196    3.0613   -2.1535 N.am      1 <0>        -0.6760
     19 C16         7.8658    4.3420   -1.4889 C.3       1 <0>         0.1270
     20 H1          7.0762    4.8757   -2.0179 H         1 <0>         0.0933
     21 C17         7.4311    4.0893   -0.0439 C.3       1 <0>        -0.0783
     22 C18         6.1084    3.3672   -0.0362 C.ar      1 <0>        -0.0510
     23 C19         6.0783    1.9843   -0.0439 C.ar      1 <0>        -0.1221
     24 C20         4.8698    1.3178   -0.0364 C.ar      1 <0>        -0.0734
     25 C21         3.6785    2.0406   -0.0216 C.ar      1 <0>        -0.0727
     26 C22         3.7147    3.4338   -0.0202 C.ar      1 <0>        -0.0949
     27 C23         4.9290    4.0898   -0.0211 C.ar      1 <0>        -0.1186
     28 C24         2.3764    1.3298   -0.0135 C.ar      1 <0>         0.1818
     29 C25         1.1903    2.0607    0.0018 C.ar      1 <0>        -0.1682
     30 C26        -0.0167    1.3837    0.0096 C.ar      1 <0>        -0.0720
     31 C27         0.0021   -0.0041    0.0020 C.ar      1 <0>        -0.1853
     32 C28         1.2159   -0.6656   -0.0131 C.ar      1 <0>         0.1048
     33 N2          2.3510    0.0036   -0.0204 N.ar      1 <0>        -0.4813
     34 C29         9.1247    5.1703   -1.4973 C.2       1 <0>         0.4579
     35 O3         10.1306    4.7355   -2.0061 O.co2     1 <0>        -0.6228
     36 H2         13.6136   -0.8789   -6.1652 H         1 <0>         0.1249
     37 H3         12.6246   -0.4446   -3.9544 H         1 <0>         0.1282
     38 H4         10.2390    0.1338   -3.7605 H         1 <0>         0.1321
     39 H5         12.2274   -0.7364   -8.1894 H         1 <0>         0.1203
     40 H6         10.3679   -0.4678  -10.0263 H         1 <0>         0.1227
     41 H7          8.3430   -0.1142  -11.3730 H         1 <0>         0.1257
     42 H8          6.2201    0.4846  -10.2827 H         1 <0>         0.1274
     43 H9          6.1152    0.7313   -7.8349 H         1 <0>         0.1267
     44 H10         7.8041   -0.3777   -5.5398 H         1 <0>         0.1128
     45 H11         7.1107    2.0407   -5.8327 H         1 <0>         0.0740
     46 H12         8.8322    2.4643   -5.9917 H         1 <0>         0.0734
     47 H13         8.3598    2.2817   -1.6287 H         1 <0>         0.3965
     48 H14         7.3282    5.0416    0.4763 H         1 <0>         0.1043
     49 H15         8.1810    3.4794    0.4598 H         1 <0>         0.0769
     50 H16         7.0022    1.4251   -0.0553 H         1 <0>         0.1232
     51 H17         4.8475    0.2380   -0.0417 H         1 <0>         0.1314
     52 H18         2.7944    3.9989   -0.0136 H         1 <0>         0.1233
     53 H19         4.9583    5.1694   -0.0148 H         1 <0>         0.1302
     54 H20         1.2124    3.1405    0.0070 H         1 <0>         0.1376
     55 H21        -0.9524    1.9231    0.0170 H         1 <0>         0.1343
     56 H22        -0.9227   -0.5619    0.0082 H         1 <0>         0.1330
     57 H23         1.2341   -1.7454   -0.0195 H         1 <0>         0.1558
     58 O4          9.1285    6.3912   -0.9393 O.co2     1 <0>        -0.7621
@<TRIPOS>BOND
     1    1    6 ar
     2    1    2 ar
     3    1   36 1
     4    2    3 ar
     5    2   37 1
     6    3    4 ar
     7    3   38 1
     8    4   13 1
     9    4    5 ar
    10    5    6 ar
    11    5    7 1
    12    6   39 1
    13    7   12 ar
    14    7    8 ar
    15    8    9 ar
    16    8   40 1
    17    9   10 ar
    18    9   41 1
    19   10   11 ar
    20   10   42 1
    21   11   12 ar
    22   11   43 1
    23   12   13 1
    24   13   14 1
    25   13   44 1
    26   14   15 1
    27   14   45 1
    28   14   46 1
    29   15   16 1
    30   16   17 2
    31   16   18 am
    32   18   19 1
    33   18   47 1
    34   19   20 1
    35   19   21 1
    36   19   34 1
    37   21   22 1
    38   21   48 1
    39   21   49 1
    40   22   27 ar
    41   22   23 ar
    42   23   24 ar
    43   23   50 1
    44   24   25 ar
    45   24   51 1
    46   25   26 ar
    47   25   28 1
    48   26   27 ar
    49   26   52 1
    50   27   53 1
    51   28   33 ar
    52   28   29 ar
    53   29   30 ar
    54   29   54 1
    55   30   31 ar
    56   30   55 1
    57   31   32 ar
    58   31   56 1
    59   32   33 ar
    60   32   57 1
    61   34   35 2
    62   34   58 1
@<TRIPOS>MOLECULE
ZINC00720154
   54    57     0     0     0
SMALL
USER_CHARGES
(4S,5S)-4-benzoyl-1-(3-bromo-4-methyl-phenyl)-5-(3-ethoxy-4-hydroxy-phenyl)pyrrolidine-2,3-dione
@<TRIPOS>ATOM
      1 C1         -2.9947    2.7744    7.1156 C.3       1 <0>        -0.1504
      2 C2         -3.4077    2.8208    5.6430 C.3       1 <0>         0.0521
      3 O1         -3.1522    4.1250    5.1176 O.3       1 <0>        -0.3116
      4 C3         -3.4652    4.3365    3.8111 C.ar      1 <0>         0.0850
      5 C4         -4.0061    3.3112    3.0520 C.ar      1 <0>        -0.1686
      6 C5         -4.3233    3.5278    1.7240 C.ar      1 <0>        -0.0706
      7 C6         -4.0971    4.7645    1.1489 C.ar      1 <0>        -0.0835
      8 C7         -3.5626    5.7931    1.9020 C.ar      1 <0>        -0.1824
      9 C8         -3.2424    5.5827    3.2337 C.ar      1 <0>         0.1105
     10 O2         -2.7121    6.5923    3.9748 O.3       1 <0>        -0.5066
     11 C9         -4.9110    2.4115    0.8997 C.3       1 <0>         0.2840
     12 H1         -5.3920    1.6973    1.5842 H         1 <0>         0.0256
     13 C10        -3.8177    1.7652    0.0338 C.2       1 <0>        -0.3992
     14 C11        -4.2912    1.9804   -1.3887 C.2       1 <0>         0.4292
     15 O3         -3.7235    2.6039   -2.2536 O.3       1 <0>        -0.4186
     16 C12        -5.5947    1.2715   -1.5103 C.2       1 <0>         0.4446
     17 O4         -6.2636    1.2332   -2.5227 O.2       1 <0>        -0.3976
     18 N1         -5.9168    2.9442   -0.0199 N.am      1 <0>        -0.7502
     19 C13        -7.0762    3.6111    0.3824 C.ar      1 <0>         0.2446
     20 C14        -7.4006    3.6920    1.7314 C.ar      1 <0>        -0.2222
     21 C15        -8.5447    4.3564    2.1264 C.ar      1 <0>        -0.0660
     22 C16        -9.3736    4.9322    1.1809 C.ar      1 <0>        -0.1799
     23 C17        -9.0571    4.8491   -0.1635 C.ar      1 <0>        -0.0313
     24 C18        -7.9106    4.1900   -0.5653 C.ar      1 <0>        -0.1732
     25 Br1       -10.1938    5.6383   -1.4522 Br        1 <0>        -0.0915
     26 C19       -10.6244    5.6516    1.6158 C.3       1 <0>        -0.1062
     27 C20        -2.5041    1.0266    0.0459 C.2       1 <0>         0.4977
     28 O5         -2.4903   -0.1858    0.0570 O.2       1 <0>        -0.4590
     29 C21        -1.2381    1.7769    0.0441 C.ar      1 <0>        -0.1554
     30 C22        -0.0170    1.0952    0.0553 C.ar      1 <0>        -0.0682
     31 C23         1.1649    1.8053    0.0484 C.ar      1 <0>        -0.1437
     32 C24         1.1450    3.1891    0.0357 C.ar      1 <0>        -0.0945
     33 C25        -0.0593    3.8711    0.0294 C.ar      1 <0>        -0.1389
     34 C26        -1.2498    3.1754    0.0358 C.ar      1 <0>        -0.0438
     35 H2         -3.1914    1.7705    7.5200 H         1 <0>         0.0750
     36 H3         -3.5741    3.5180    7.6824 H         1 <0>         0.0635
     37 H4         -1.9219    3.0013    7.2029 H         1 <0>         0.0636
     38 H5         -2.8283    2.0772    5.0761 H         1 <0>         0.0596
     39 H6         -4.4805    2.5940    5.5556 H         1 <0>         0.0591
     40 H7         -4.1803    2.3431    3.4979 H         1 <0>         0.1259
     41 H8         -4.3425    4.9285    0.1099 H         1 <0>         0.1259
     42 H9         -3.3908    6.7595    1.4514 H         1 <0>         0.1229
     43 H10        -2.5366    7.5770    3.5171 H         1 <0>         0.4194
     44 H11        -6.7564    3.2386    2.4703 H         1 <0>         0.1064
     45 H12        -8.7948    4.4229    3.1750 H         1 <0>         0.1025
     46 H13        -7.6641    4.1249   -1.6147 H         1 <0>         0.1073
     47 H14       -11.1503    6.0400    0.7311 H         1 <0>         0.0653
     48 H15       -10.3551    6.4873    2.2784 H         1 <0>         0.0525
     49 H16       -11.2806    4.9527    2.1551 H         1 <0>         0.0527
     50 H17         0.0002    0.0154    0.0648 H         1 <0>         0.1296
     51 H18         2.1087    1.2802    0.0525 H         1 <0>         0.1225
     52 H19         2.0741    3.7397    0.0303 H         1 <0>         0.1201
     53 H20        -0.0667    4.9510    0.0192 H         1 <0>         0.1228
     54 H21        -2.1888    3.7089    0.0302 H         1 <0>         0.1429
@<TRIPOS>BOND
     1    1    2 1
     2    1   35 1
     3    1   36 1
     4    1   37 1
     5    2    3 1
     6    2   38 1
     7    2   39 1
     8    3    4 1
     9    4    9 ar
    10    4    5 ar
    11    5    6 ar
    12    5   40 1
    13    6    7 ar
    14    6   11 1
    15    7    8 ar
    16    7   41 1
    17    8    9 ar
    18    8   42 1
    19    9   10 1
    20   10   43 1
    21   11   13 1
    22   11   18 1
    23   11   12 1
    24   13   14 2
    25   13   27 1
    26   14   16 1
    27   14   15 1
    28   16   18 am
    29   16   17 2
    30   18   19 1
    31   19   24 ar
    32   19   20 ar
    33   20   21 ar
    34   20   44 1
    35   21   22 ar
    36   21   45 1
    37   22   23 ar
    38   22   26 1
    39   23   24 ar
    40   23   25 1
    41   24   46 1
    42   26   47 1
    43   26   48 1
    44   26   49 1
    45   27   28 2
    46   27   29 1
    47   29   34 ar
    48   29   30 ar
    49   30   31 ar
    50   30   50 1
    51   31   32 ar
    52   31   51 1
    53   32   33 ar
    54   32   52 1
    55   33   34 ar
    56   33   53 1
    57   34   54 1
@<TRIPOS>MOLECULE
ZINC40028681
   67    69     0     0     0
SMALL
USER_CHARGES

@<TRIPOS>ATOM
      1 C1         -1.2192   -8.4085   -2.9147 C.3       1 <0>        -0.0820
      2 C2         -0.3185   -7.5229   -3.7364 C.2       1 <0>         0.1027
      3 C3         -0.4266   -6.1372   -3.7081 C.2       1 <0>        -0.2388
      4 S1          0.8698   -5.6868   -4.8510 S.3       1 <0>         0.1615
      5 C4          1.3943   -7.2400   -5.2316 C.2       1 <0>         0.0133
      6 N1          0.6138   -8.0148   -4.5131 N.2       1 <0>        -0.5225
      7 C5          2.5012   -7.6457   -6.1703 C.3       1 <0>        -0.0590
      8 C6         -1.3482   -5.2837   -2.9514 C.2       1 <0>         0.5030
      9 O1         -2.2665   -5.7832   -2.3259 O.2       1 <0>        -0.4750
     10 C7         -1.1642   -3.8274   -2.9478 C.2       1 <0>        -0.4832
     11 C8         -2.0055   -2.9095   -2.4198 C.2       1 <0>         0.2841
     12 C9         -1.4451   -1.5592   -2.6294 C.2       1 <0>         0.5093
     13 O2         -1.9675   -0.5235   -2.2674 O.2       1 <0>        -0.5308
     14 N2         -0.2705   -1.6450   -3.2800 N.am      1 <0>        -0.6021
     15 C10         0.0047   -3.0653   -3.5273 C.3       1 <0>         0.2496
     16 H1          0.0781   -3.2498   -4.5991 H         1 <0>         0.0682
     17 C11         1.2822   -3.4757   -2.8413 C.ar      1 <0>        -0.0761
     18 C12         2.4627   -3.5347   -3.5588 C.ar      1 <0>        -0.0919
     19 C13         3.6350   -3.9110   -2.9324 C.ar      1 <0>        -0.0975
     20 C14         3.6273   -4.2293   -1.5821 C.ar      1 <0>         0.1098
     21 C15         2.4417   -4.1689   -0.8643 C.ar      1 <0>        -0.0963
     22 C16         1.2730   -3.7870   -1.4942 C.ar      1 <0>        -0.0730
     23 C17         2.4298   -4.5142    0.6025 C.3       1 <0>        -0.0182
     24 C18         1.0047   -4.3870    1.1448 C.3       1 <0>        -0.1462
     25 C19         2.9214   -5.9505    0.7924 C.3       1 <0>        -0.1376
     26 C20         3.3510   -3.5555    1.3596 C.3       1 <0>        -0.1364
     27 O3          4.7792   -4.6002   -0.9637 O.3       1 <0>        -0.4877
     28 C21         4.9211   -3.9760   -3.7153 C.3       1 <0>        -0.0147
     29 C22         4.6539   -3.5802   -5.1688 C.3       1 <0>        -0.1444
     30 C23         5.9399   -3.0125   -3.1034 C.3       1 <0>        -0.1391
     31 C24         5.4751   -5.4014   -3.6685 C.3       1 <0>        -0.1392
     32 C25         0.5845   -0.5206   -3.6682 C.3       1 <0>         0.1617
     33 C26         1.5602   -0.2249   -2.5583 C.2       1 <0>        -0.1556
     34 C27         2.8465   -0.2046   -2.8052 C.2       1 <0>        -0.1810
     35 O4         -3.1758   -3.1847   -1.7977 O.3       1 <0>        -0.6035
     36 H2         -0.7663   -8.5816   -1.9385 H         1 <0>         0.0700
     37 H3         -2.1866   -7.9230   -2.7855 H         1 <0>         0.0951
     38 H4         -1.3564   -9.3615   -3.4257 H         1 <0>         0.0649
     39 H5          3.4211   -7.7942   -5.6047 H         1 <0>         0.0828
     40 H6          2.2296   -8.5742   -6.6725 H         1 <0>         0.0848
     41 H7          2.6536   -6.8622   -6.9126 H         1 <0>         0.0795
     42 H8          2.4681   -3.2867   -4.6100 H         1 <0>         0.1217
     43 H9          0.3506   -3.7356   -0.9349 H         1 <0>         0.1317
     44 H10         0.3599   -5.1096    0.6447 H         1 <0>         0.0617
     45 H11         1.0054   -4.5817    2.2173 H         1 <0>         0.0536
     46 H12         0.6338   -3.3791    0.9588 H         1 <0>         0.0580
     47 H13         3.9366   -6.0411    0.4061 H         1 <0>         0.0723
     48 H14         2.9128   -6.2002    1.8534 H         1 <0>         0.0485
     49 H15         2.2651   -6.6335    0.2531 H         1 <0>         0.0496
     50 H16         3.0007   -2.5322    1.2243 H         1 <0>         0.0521
     51 H17         3.3423   -3.8052    2.4206 H         1 <0>         0.0550
     52 H18         4.3662   -3.6461    0.9733 H         1 <0>         0.0546
     53 H19         5.2771   -3.8630   -0.5847 H         1 <0>         0.3731
     54 H20         4.2592   -2.5647   -5.2022 H         1 <0>         0.0573
     55 H21         5.5841   -3.6273   -5.7351 H         1 <0>         0.0540
     56 H22         3.9280   -4.2666   -5.6048 H         1 <0>         0.0573
     57 H23         6.1303   -3.2945   -2.0678 H         1 <0>         0.0562
     58 H24         6.8701   -3.0595   -3.6696 H         1 <0>         0.0536
     59 H25         5.5452   -1.9970   -3.1367 H         1 <0>         0.0543
     60 H26         4.7492   -6.0879   -4.1044 H         1 <0>         0.0490
     61 H27         6.4053   -5.4485   -4.2347 H         1 <0>         0.0481
     62 H28         5.6654   -5.6834   -2.6329 H         1 <0>         0.0731
     63 H29         1.1325   -0.7769   -4.5749 H         1 <0>         0.0783
     64 H30        -0.0329    0.3585   -3.8529 H         1 <0>         0.0865
     65 H31         1.1989   -0.0298   -1.5594 H         1 <0>         0.1060
     66 H32         3.2079   -0.3997   -3.8041 H         1 <0>         0.0939
     67 H33         3.5457    0.0073   -2.0098 H         1 <0>         0.0921
@<TRIPOS>BOND
     1    1    2 1
     2    1   36 1
     3    1   37 1
     4    1   38 1
     5    2    6 1
     6    2    3 2
     7    3    4 1
     8    3    8 1
     9    4    5 1
    10    5    6 2
    11    5    7 1
    12    7   39 1
    13    7   40 1
    14    7   41 1
    15    8    9 2
    16    8   10 1
    17   10   15 1
    18   10   11 2
    19   11   12 1
    20   11   35 1
    21   12   13 2
    22   12   14 am
    23   14   15 1
    24   14   32 1
    25   15   16 1
    26   15   17 1
    27   17   22 ar
    28   17   18 ar
    29   18   19 ar
    30   18   42 1
    31   19   20 ar
    32   19   28 1
    33   20   21 ar
    34   20   27 1
    35   21   22 ar
    36   21   23 1
    37   22   43 1
    38   23   24 1
    39   23   25 1
    40   23   26 1
    41   24   44 1
    42   24   45 1
    43   24   46 1
    44   25   47 1
    45   25   48 1
    46   25   49 1
    47   26   50 1
    48   26   51 1
    49   26   52 1
    50   27   53 1
    51   28   29 1
    52   28   30 1
    53   28   31 1
    54   29   54 1
    55   29   55 1
    56   29   56 1
    57   30   57 1
    58   30   58 1
    59   30   59 1
    60   31   60 1
    61   31   61 1
    62   31   62 1
    63   32   33 1
    64   32   63 1
    65   32   64 1
    66   33   34 2
    67   33   65 1
    68   34   66 1
    69   34   67 1
@<TRIPOS>MOLECULE
ZINC40103070
   54    57     0     0     0
SMALL
USER_CHARGES

@<TRIPOS>ATOM
      1 C1         -1.9144   -0.1157   -3.5644 C.ar      1 <0>        -0.1209
      2 C2         -1.5664    1.2111   -3.7379 C.ar      1 <0>        -0.1170
      3 C3         -0.5584    1.7670   -2.9733 C.ar      1 <0>        -0.1161
      4 C4          0.1023    0.9957   -2.0336 C.ar      1 <0>        -0.0318
      5 C5         -0.2466   -0.3316   -1.8601 C.ar      1 <0>        -0.0636
      6 C6         -1.2547   -0.8867   -2.6259 C.ar      1 <0>        -0.0766
      7 C7          0.4728   -1.1725   -0.8371 C.3       1 <0>         0.2586
      8 H1          1.0563   -0.5356   -0.1723 H         1 <0>         0.0789
      9 C8          1.3754   -2.1692   -1.5261 C.2       1 <0>        -0.5047
     10 C9          0.9456   -3.4008   -1.1640 C.2       1 <0>         0.2665
     11 C10        -0.2133   -3.2631   -0.2567 C.2       1 <0>         0.5140
     12 O1         -0.8230   -4.1887    0.2410 O.2       1 <0>        -0.5156
     13 N1         -0.4929   -1.9602   -0.0621 N.am      1 <0>        -0.6130
     14 C11        -1.5697   -1.4236    0.7739 C.3       1 <0>         0.1385
     15 C12        -2.8726   -1.3970   -0.0277 C.3       1 <0>         0.0471
     16 O2         -3.3355   -2.7339   -0.2288 O.3       1 <0>        -0.5511
     17 O3          1.4901   -4.5713   -1.5682 O.3       1 <0>        -0.6524
     18 C13         2.4994   -1.8620   -2.4153 C.2       1 <0>         0.5057
     19 O4          2.4421   -2.1601   -3.5935 O.2       1 <0>        -0.4700
     20 C14         3.7029   -1.1896   -1.8805 C.ar      1 <0>        -0.0935
     21 C15         3.8291   -0.9659   -0.5075 C.ar      1 <0>        -0.0924
     22 C16         4.9534   -0.3388   -0.0122 C.ar      1 <0>        -0.0991
     23 C17         5.9577    0.0698   -0.8710 C.ar      1 <0>        -0.1942
     24 C18         5.8412   -0.1478   -2.2374 C.ar      1 <0>         0.1083
     25 C19         4.7196   -0.7815   -2.7451 C.ar      1 <0>        -0.1028
     26 O5          6.8311    0.2563   -3.0764 O.3       1 <0>        -0.3093
     27 C20         7.9621    0.8980   -2.4838 C.3       1 <0>         0.1005
     28 C21         8.9481    1.2726   -3.5600 C.ar      1 <0>        -0.0871
     29 C22         9.9350    0.3797   -3.9341 C.ar      1 <0>        -0.0814
     30 C23        10.8396    0.7227   -4.9212 C.ar      1 <0>        -0.1137
     31 C24        10.7574    1.9600   -5.5348 C.ar      1 <0>        -0.0272
     32 C25         9.7696    2.8532   -5.1600 C.ar      1 <0>        -0.1142
     33 C26         8.8620    2.5068   -4.1768 C.ar      1 <0>        -0.0819
     34 Cl1        11.8937    2.3918   -6.7742 Cl        1 <0>        -0.0708
     35 Cl2         1.3691    1.6932   -1.0731 Cl        1 <0>        -0.0703
     36 H2         -2.7050   -0.5486   -4.1593 H         1 <0>         0.1234
     37 H3         -2.0821    1.8130   -4.4714 H         1 <0>         0.1254
     38 H4         -0.2861    2.8032   -3.1095 H         1 <0>         0.1277
     39 H5         -1.5270   -1.9231   -2.4908 H         1 <0>         0.1294
     40 H6         -1.6966   -2.0557    1.6528 H         1 <0>         0.0834
     41 H7         -1.3156   -0.4113    1.0880 H         1 <0>         0.0877
     42 H8         -3.6252   -0.8306    0.5210 H         1 <0>         0.0454
     43 H9         -2.6953   -0.9247   -0.9938 H         1 <0>         0.0567
     44 H10        -4.1597   -2.7934   -0.7311 H         1 <0>         0.3684
     45 H11         3.0466   -1.2833    0.1658 H         1 <0>         0.1343
     46 H12         5.0497   -0.1660    1.0495 H         1 <0>         0.1243
     47 H13         6.8357    0.5602   -0.4774 H         1 <0>         0.1231
     48 H14         4.6300   -0.9556   -3.8072 H         1 <0>         0.1354
     49 H15         7.6367    1.7969   -1.9602 H         1 <0>         0.0720
     50 H16         8.4368    0.2175   -1.7769 H         1 <0>         0.0725
     51 H17         9.9993   -0.5859   -3.4548 H         1 <0>         0.1360
     52 H18        11.6108    0.0252   -5.2131 H         1 <0>         0.1362
     53 H19         9.7051    3.8193   -5.6384 H         1 <0>         0.1359
     54 H20         8.0879    3.2021   -3.8874 H         1 <0>         0.1354
@<TRIPOS>BOND
     1    1    6 ar
     2    1    2 ar
     3    1   36 1
     4    2    3 ar
     5    2   37 1
     6    3    4 ar
     7    3   38 1
     8    4    5 ar
     9    4   35 1
    10    5    6 ar
    11    5    7 1
    12    6   39 1
    13    7    8 1
    14    7   13 1
    15    7    9 1
    16    9   10 2
    17    9   18 1
    18   10   11 1
    19   10   17 1
    20   11   12 2
    21   11   13 am
    22   13   14 1
    23   14   15 1
    24   14   40 1
    25   14   41 1
    26   15   16 1
    27   15   42 1
    28   15   43 1
    29   16   44 1
    30   18   19 2
    31   18   20 1
    32   20   25 ar
    33   20   21 ar
    34   21   22 ar
    35   21   45 1
    36   22   23 ar
    37   22   46 1
    38   23   24 ar
    39   23   47 1
    40   24   25 ar
    41   24   26 1
    42   25   48 1
    43   26   27 1
    44   27   28 1
    45   27   49 1
    46   27   50 1
    47   28   33 ar
    48   28   29 ar
    49   29   30 ar
    50   29   51 1
    51   30   31 ar
    52   30   52 1
    53   31   32 ar
    54   31   34 1
    55   32   33 ar
    56   32   53 1
    57   33   54 1
@<TRIPOS>MOLECULE
ZINC40126020
   50    52     0     0     0
SMALL
USER_CHARGES

@<TRIPOS>ATOM
      1 C1         -2.1031    2.2223   -1.1241 C.3       1 <0>        -0.1519
      2 C2         -1.7984    0.7251   -1.0430 C.3       1 <0>        -0.1212
      3 C3         -3.1059   -0.0537   -0.8854 C.3       1 <0>        -0.1205
      4 C4         -2.8011   -1.5508   -0.8043 C.3       1 <0>         0.0603
      5 O1         -4.0223   -2.2782   -0.6572 O.3       1 <0>        -0.3176
      6 C5         -3.9279   -3.6312   -0.5696 C.ar      1 <0>         0.1087
      7 C6         -2.6827   -4.2447   -0.6188 C.ar      1 <0>        -0.1962
      8 C7         -2.5803   -5.6208   -0.5307 C.ar      1 <0>        -0.0999
      9 C8         -3.7147   -6.3941   -0.3933 C.ar      1 <0>        -0.0892
     10 C9         -4.9710   -5.7864   -0.3425 C.ar      1 <0>        -0.0872
     11 C10        -5.0722   -4.3966   -0.4259 C.ar      1 <0>        -0.1082
     12 C11        -6.1891   -6.6116   -0.1953 C.2       1 <0>         0.5090
     13 O2         -7.2767   -6.0771   -0.0871 O.2       1 <0>        -0.4727
     14 C12        -6.0864   -8.0738   -0.1797 C.2       1 <0>        -0.4997
     15 C13        -6.5657   -8.9268   -1.1151 C.2       1 <0>         0.2615
     16 C14        -6.2478  -10.3141   -0.7154 C.2       1 <0>         0.5130
     17 O3         -6.5449  -11.3076   -1.3484 O.2       1 <0>        -0.5369
     18 N1         -5.5805  -10.3138    0.4528 N.am      1 <0>        -0.7274
     19 C15        -5.4193   -8.9190    0.8802 C.3       1 <0>         0.2709
     20 H1         -4.3614   -8.6661    0.9502 H         1 <0>         0.0823
     21 C16        -6.0927   -8.7071    2.2116 C.ar      1 <0>        -0.0961
     22 C17        -7.1131   -9.5482    2.6118 C.ar      1 <0>        -0.0401
     23 C18        -7.7315   -9.3541    3.8338 C.ar      1 <0>        -0.1242
     24 C19        -7.3298   -8.3177    4.6578 C.ar      1 <0>        -0.0611
     25 C20        -6.3098   -7.4748    4.2616 C.ar      1 <0>        -0.2040
     26 C21        -5.6846   -7.6710    3.0386 C.ar      1 <0>         0.1505
     27 O4         -4.6775   -6.8456    2.6490 O.3       1 <0>        -0.2972
     28 C22        -4.3872   -5.7318    3.4958 C.3       1 <0>         0.0283
     29 Br1        -9.1283  -10.5064    4.3787 Br        1 <0>        -0.0627
     30 O5         -7.2306   -8.5671   -2.2369 O.3       1 <0>        -0.6529
     31 H2         -1.1716    2.7771   -1.2363 H         1 <0>         0.0553
     32 H3         -2.7471    2.4160   -1.9819 H         1 <0>         0.0558
     33 H4         -2.6078    2.5403   -0.2118 H         1 <0>         0.0553
     34 H5         -1.2937    0.4071   -1.9553 H         1 <0>         0.0643
     35 H6         -1.1544    0.5313   -0.1852 H         1 <0>         0.0637
     36 H7         -3.6105    0.2643    0.0269 H         1 <0>         0.0729
     37 H8         -3.7498    0.1401   -1.7433 H         1 <0>         0.0737
     38 H9         -2.2965   -1.8688   -1.7166 H         1 <0>         0.0593
     39 H10        -2.1572   -1.7446    0.0535 H         1 <0>         0.0586
     40 H11        -1.7913   -3.6447   -0.7266 H         1 <0>         0.1217
     41 H12        -1.6092   -6.0919   -0.5699 H         1 <0>         0.1232
     42 H13        -3.6312   -7.4687   -0.3255 H         1 <0>         0.1340
     43 H14        -6.0406   -3.9204   -0.3831 H         1 <0>         0.1339
     44 H15        -5.2596  -11.0967    0.9270 H         1 <0>         0.4065
     45 H16        -7.4284  -10.3575    1.9700 H         1 <0>         0.1366
     46 H17        -7.8144   -8.1674    5.6112 H         1 <0>         0.1295
     47 H18        -5.9968   -6.6658    4.9049 H         1 <0>         0.1333
     48 H19        -5.2932   -5.1451    3.6478 H         1 <0>         0.0549
     49 H20        -4.0220   -6.0920    4.4575 H         1 <0>         0.0520
     50 H21        -3.6250   -5.1086    3.0280 H         1 <0>         0.0977
@<TRIPOS>BOND
     1    1    2 1
     2    1   31 1
     3    1   32 1
     4    1   33 1
     5    2    3 1
     6    2   34 1
     7    2   35 1
     8    3    4 1
     9    3   36 1
    10    3   37 1
    11    4    5 1
    12    4   38 1
    13    4   39 1
    14    5    6 1
    15    6   11 ar
    16    6    7 ar
    17    7    8 ar
    18    7   40 1
    19    8    9 ar
    20    8   41 1
    21    9   10 ar
    22    9   42 1
    23   10   11 ar
    24   10   12 1
    25   11   43 1
    26   12   13 2
    27   12   14 1
    28   14   19 1
    29   14   15 2
    30   15   16 1
    31   15   30 1
    32   16   17 2
    33   16   18 am
    34   18   19 1
    35   18   44 1
    36   19   20 1
    37   19   21 1
    38   21   26 ar
    39   21   22 ar
    40   22   23 ar
    41   22   45 1
    42   23   24 ar
    43   23   29 1
    44   24   25 ar
    45   24   46 1
    46   25   26 ar
    47   25   47 1
    48   26   27 1
    49   27   28 1
    50   28   48 1
    51   28   49 1
    52   28   50 1
@<TRIPOS>MOLECULE
ZINC19877658
   50    52     0     0     0
SMALL
USER_CHARGES
(5Z)-5-[(2-bromo-4-ethoxy-5-methoxy-phenyl)methylene]-1-(3,5-dimethylphenyl)-2-thioxo-hexahydropyrimidine-4,6-dione
@<TRIPOS>ATOM
      1 C1         -8.0022   -0.4122    2.8646 C.3       1 <0>        -0.1524
      2 C2         -6.7990    0.4743    2.5369 C.3       1 <0>         0.0477
      3 O1         -5.6097   -0.3180    2.5364 O.3       1 <0>        -0.2977
      4 C3         -4.4441    0.3206    2.2616 C.ar      1 <0>         0.1267
      5 C4         -4.4480    1.6848    1.9977 C.ar      1 <0>        -0.1621
      6 C5         -3.2690    2.3396    1.7189 C.ar      1 <0>        -0.0604
      7 C6         -2.0592    1.6267    1.7008 C.ar      1 <0>        -0.0517
      8 C7         -2.0598    0.2476    1.9622 C.ar      1 <0>        -0.0824
      9 C8         -3.2458   -0.3958    2.2456 C.ar      1 <0>         0.1076
     10 O2         -3.2491   -1.7309    2.5048 O.3       1 <0>        -0.3016
     11 C9         -1.9783   -2.3795    2.5845 C.3       1 <0>         0.0207
     12 C10        -0.8050    2.3171    1.4050 C.2       1 <0>         0.0522
     13 C11         0.1015    1.7566    0.5250 C.2       1 <0>        -0.2628
     14 C12         1.4731    2.2859    0.3897 C.2       1 <0>         0.5314
     15 O3          1.8462    3.2326    1.0562 O.3       1 <0>        -0.5138
     16 N1          2.3011    1.6908   -0.4936 N.2       1 <0>        -0.6225
     17 C13         1.9028    0.6474   -1.2345 C.2       1 <0>         0.5414
     18 S1          3.0237   -0.0434   -2.3288 S.2       1 <0>        -0.6762
     19 N2          0.6747    0.1153   -1.1649 N.am      1 <0>        -0.5085
     20 C14        -0.2605    0.6061   -0.3257 C.2       1 <0>         0.5528
     21 O4         -1.3716    0.1137   -0.2713 O.2       1 <0>        -0.4909
     22 C15         0.3548   -0.9764   -1.9826 C.ar      1 <0>         0.1684
     23 C16         0.7132   -2.2618   -1.5985 C.ar      1 <0>        -0.0892
     24 C17         0.3918   -3.3366   -2.4042 C.ar      1 <0>        -0.0777
     25 C18        -0.2769   -3.1326   -3.5973 C.ar      1 <0>        -0.1176
     26 C19        -0.6302   -1.8532   -3.9852 C.ar      1 <0>        -0.0777
     27 C20        -0.3162   -0.7748   -3.1813 C.ar      1 <0>        -0.0969
     28 C21        -1.3581   -1.6352   -5.2866 C.3       1 <0>        -0.1101
     29 C22         0.7758   -4.7324   -1.9857 C.3       1 <0>        -0.1100
     30 Br1        -3.2790    4.1965    1.3616 Br        1 <0>        -0.0398
     31 H1         -8.9177    0.1977    2.8650 H         1 <0>         0.0785
     32 H2         -7.8636   -0.8662    3.8569 H         1 <0>         0.0670
     33 H3         -8.0903   -1.2053    2.1075 H         1 <0>         0.0676
     34 H4         -6.9376    0.9283    1.5446 H         1 <0>         0.0640
     35 H5         -6.7109    1.2675    3.2940 H         1 <0>         0.0637
     36 H6         -5.3782    2.2333    2.0115 H         1 <0>         0.1451
     37 H7         -1.1332   -0.3070    1.9457 H         1 <0>         0.1386
     38 H8         -2.1251   -3.4487    2.7973 H         1 <0>         0.1036
     39 H9         -1.3838   -1.9235    3.3899 H         1 <0>         0.0547
     40 H10        -1.4478   -2.2655    1.6276 H         1 <0>         0.0602
     41 H11        -0.5827    3.2827    1.8828 H         1 <0>         0.1623
     42 H12         1.2392   -2.4213   -0.6688 H         1 <0>         0.1165
     43 H13        -0.5235   -3.9742   -4.2275 H         1 <0>         0.1195
     44 H14        -0.5921    0.2242   -3.4850 H         1 <0>         0.1153
     45 H15        -1.5522   -0.5610   -5.4226 H         1 <0>         0.0625
     46 H16        -2.3130   -2.1810   -5.2685 H         1 <0>         0.0662
     47 H17        -0.7404   -2.0044   -6.1185 H         1 <0>         0.0691
     48 H18         0.4383   -5.4497   -2.7483 H         1 <0>         0.0633
     49 H19         0.3005   -4.9703   -1.0226 H         1 <0>         0.0648
     50 H20         1.8689   -4.7960   -1.8807 H         1 <0>         0.0703
@<TRIPOS>BOND
     1    1    2 1
     2    1   31 1
     3    1   32 1
     4    1   33 1
     5    2    3 1
     6    2   34 1
     7    2   35 1
     8    3    4 1
     9    4    9 ar
    10    4    5 ar
    11    5    6 ar
    12    5   36 1
    13    6    7 ar
    14    6   30 1
    15    7    8 ar
    16    7   12 1
    17    8    9 ar
    18    8   37 1
    19    9   10 1
    20   10   11 1
    21   11   38 1
    22   11   39 1
    23   11   40 1
    24   12   13 2
    25   12   41 1
    26   13   20 1
    27   13   14 1
    28   14   15 1
    29   14   16 2
    30   16   17 1
    31   17   18 2
    32   17   19 1
    33   19   20 am
    34   19   22 1
    35   20   21 2
    36   22   27 ar
    37   22   23 ar
    38   23   24 ar
    39   23   42 1
    40   24   25 ar
    41   24   29 1
    42   25   26 ar
    43   25   43 1
    44   26   27 ar
    45   26   28 1
    46   27   44 1
    47   28   45 1
    48   28   46 1
    49   28   47 1
    50   29   48 1
    51   29   49 1
    52   29   50 1
@<TRIPOS>MOLECULE
ZINC32101861
   44    46     0     0     0
SMALL
USER_CHARGES

@<TRIPOS>ATOM
      1 C1         -0.2741    1.9613   -0.6383 C.3       1 <0>        -0.1525
      2 C2         -0.4947    0.4507   -0.7401 C.3       1 <0>         0.0617
      3 O1          0.3510   -0.0866   -1.7589 O.3       1 <0>        -0.3490
      4 C3          0.2786   -1.4092   -1.9763 C.2       1 <0>         0.4647
      5 O2         -0.4779   -2.0883   -1.3232 O.2       1 <0>        -0.4780
      6 C4          1.1407   -2.0472   -3.0350 C.3       1 <0>         0.0650
      7 O3          0.8842   -3.4524   -3.0751 O.3       1 <0>        -0.2816
      8 C5          1.5843   -4.1811   -3.9817 C.ar      1 <0>         0.1527
      9 C6          2.5052   -3.5531   -4.8125 C.ar      1 <0>        -0.1959
     10 C7          3.2182   -4.2869   -5.7332 C.ar      1 <0>        -0.0506
     11 C8          3.0148   -5.6692   -5.8326 C.ar      1 <0>        -0.0814
     12 C9          2.0861   -6.2973   -4.9936 C.ar      1 <0>        -0.0343
     13 C10         1.3818   -5.5542   -4.0721 C.ar      1 <0>        -0.1198
     14 Br1         0.1323   -6.4011   -2.9331 Br        1 <0>        -0.0350
     15 C11         3.7723   -6.4566   -6.8133 C.2       1 <0>        -0.0223
     16 C12         4.7893   -5.8824   -7.5047 C.2       1 <0>        -0.1796
     17 C13         5.5851   -6.4118   -8.6369 C.2       1 <0>         0.5304
     18 O4          5.3833   -7.5222   -9.1023 O.2       1 <0>        -0.5354
     19 N1          6.5201   -5.6198   -9.1130 N.2       1 <0>        -0.7118
     20 C14         6.7490   -4.4136   -8.6180 C.2       1 <0>         0.4301
     21 S1          5.5406   -4.2711   -7.3106 S.3       1 <0>        -0.1128
     22 N2          7.6837   -3.4937   -9.0166 N.2       1 <0>        -0.5674
     23 C15         8.3930   -3.6878  -10.2068 C.ar      1 <0>         0.1525
     24 C16         7.8525   -4.4704  -11.2188 C.ar      1 <0>        -0.1282
     25 C17         8.5542   -4.6603  -12.3930 C.ar      1 <0>        -0.1354
     26 C18         9.7961   -4.0714  -12.5616 C.ar      1 <0>         0.0382
     27 C19        10.3372   -3.2911  -11.5537 C.ar      1 <0>        -0.1393
     28 C20         9.6362   -3.0935  -10.3802 C.ar      1 <0>        -0.1164
     29 F1         10.4811   -4.2588  -13.7109 F         1 <0>        -0.1563
     30 H1          0.7679    2.1602   -0.3878 H         1 <0>         0.0682
     31 H2         -0.5139    2.4286   -1.5934 H         1 <0>         0.0681
     32 H3         -0.9192    2.3711    0.1389 H         1 <0>         0.0809
     33 H4         -0.2550   -0.0167    0.2150 H         1 <0>         0.0701
     34 H5         -1.5367    0.2517   -0.9905 H         1 <0>         0.0700
     35 H6          0.9094   -1.6078   -4.0053 H         1 <0>         0.1118
     36 H7          2.1912   -1.8762   -2.7997 H         1 <0>         0.1122
     37 H8          2.6612   -2.4872   -4.7355 H         1 <0>         0.1413
     38 H9          3.9331   -3.7976   -6.3782 H         1 <0>         0.1532
     39 H10         1.9254   -7.3628   -5.0661 H         1 <0>         0.1462
     40 H11         3.5202   -7.4927   -6.9845 H         1 <0>         0.1500
     41 H12         6.8842   -4.9304  -11.0875 H         1 <0>         0.1445
     42 H13         8.1342   -5.2687  -13.1803 H         1 <0>         0.1213
     43 H14        11.3063   -2.8333  -11.6869 H         1 <0>         0.1244
     44 H15        10.0565   -2.4809   -9.5963 H         1 <0>         0.1256
@<TRIPOS>BOND
     1    1    2 1
     2    1   30 1
     3    1   31 1
     4    1   32 1
     5    2    3 1
     6    2   33 1
     7    2   34 1
     8    3    4 1
     9    4    5 2
    10    4    6 1
    11    6    7 1
    12    6   35 1
    13    6   36 1
    14    7    8 1
    15    8   13 ar
    16    8    9 ar
    17    9   10 ar
    18    9   37 1
    19   10   11 ar
    20   10   38 1
    21   11   12 ar
    22   11   15 1
    23   12   13 ar
    24   12   39 1
    25   13   14 1
    26   15   16 2
    27   15   40 1
    28   16   21 1
    29   16   17 1
    30   17   18 2
    31   17   19 1
    32   19   20 2
    33   20   21 1
    34   20   22 1
    35   22   23 1
    36   23   28 ar
    37   23   24 ar
    38   24   25 ar
    39   24   41 1
    40   25   26 ar
    41   25   42 1
    42   26   27 ar
    43   26   29 1
    44   27   28 ar
    45   27   43 1
    46   28   44 1
@<TRIPOS>MOLECULE
ZINC20604668
   62    65     0     0     0
SMALL
USER_CHARGES

@<TRIPOS>ATOM
      1 C1         -0.8978    1.3899    0.0358 C.3       1 <0>        -0.1173
      2 C2         -0.6432   -0.0954    0.0291 C.2       1 <0>         0.1320
      3 C3         -0.3612   -0.7176   -1.1356 C.2       1 <0>        -0.2565
      4 C4         -0.1218   -2.1063   -1.1479 C.2       1 <0>         0.3275
      5 C5         -0.1814   -2.8068    0.0426 C.2       1 <0>        -0.4332
      6 C6         -0.4774   -2.1177    1.2245 C.2       1 <0>         0.5470
      7 O1         -0.5334   -2.7218    2.2843 O.2       1 <0>        -0.5647
      8 N1         -0.6950   -0.7897    1.1961 N.am      1 <0>        -0.5206
      9 C7         -0.9983   -0.0824    2.4427 C.3       1 <0>         0.1020
     10 C8         -2.5111   -0.0769    2.6709 C.3       1 <0>         0.0487
     11 O2         -2.9668   -1.4158    2.8755 O.3       1 <0>        -0.3519
     12 C9         -4.3741   -1.5230    3.0992 C.3       1 <0>         0.0330
     13 C10         0.0686   -4.2927    0.0674 C.3       1 <0>         0.2352
     14 H1          0.1805   -4.6594   -0.9530 H         1 <0>         0.0619
     15 C11         1.3281   -4.5773    0.8444 C.ar      1 <0>        -0.0382
     16 C12         1.2574   -4.8651    2.1946 C.ar      1 <0>        -0.0618
     17 C13         2.4125   -5.1262    2.9073 C.ar      1 <0>        -0.1396
     18 C14         3.6394   -5.0997    2.2704 C.ar      1 <0>        -0.1293
     19 C15         3.7114   -4.8121    0.9206 C.ar      1 <0>        -0.1323
     20 C16         2.5548   -4.5562    0.2053 C.ar      1 <0>        -0.0396
     21 Cl1         2.6439   -4.2014   -1.4917 Cl        1 <0>        -0.0505
     22 N2         -1.0662   -4.9695    0.7093 N.3       1 <0>        -0.5072
     23 C17        -0.8909   -6.4278    0.6863 C.3       1 <0>         0.0342
     24 C18        -1.9967   -7.0851    1.5191 C.3       1 <0>         0.1301
     25 N3         -3.2981   -6.6073    1.0279 N.pl3     1 <0>        -0.6218
     26 C19        -3.5010   -5.1568    0.8928 C.3       1 <0>         0.1298
     27 C20        -2.3360   -4.5755    0.0847 C.3       1 <0>         0.0646
     28 C21        -4.3142   -7.5071    0.6980 C.ar      1 <0>         0.2322
     29 C22        -4.0667   -8.8739    0.7166 C.ar      1 <0>        -0.2080
     30 C23        -5.0737   -9.7608    0.3903 C.ar      1 <0>        -0.0710
     31 C24        -6.3272   -9.2897    0.0450 C.ar      1 <0>        -0.1954
     32 C25        -6.5769   -7.9298    0.0255 C.ar      1 <0>        -0.0707
     33 C26        -5.5760   -7.0375    0.3562 C.ar      1 <0>        -0.2062
     34 O3          0.1620   -2.7450   -2.3081 O.3       1 <0>        -0.6867
     35 H2          0.0434    1.9192    0.1838 H         1 <0>         0.0720
     36 H3         -1.3363    1.6877   -0.9167 H         1 <0>         0.0764
     37 H4         -1.5848    1.6371    0.8451 H         1 <0>         0.0635
     38 H5         -0.3196   -0.1528   -2.0551 H         1 <0>         0.1144
     39 H6         -0.5070   -0.5863    3.2751 H         1 <0>         0.0962
     40 H7         -0.6373    0.9439    2.3751 H         1 <0>         0.0847
     41 H8         -2.7438    0.5243    3.5498 H         1 <0>         0.0485
     42 H9         -3.0087    0.3469    1.7986 H         1 <0>         0.0442
     43 H10        -4.9103   -1.1292    2.2358 H         1 <0>         0.0329
     44 H11        -4.6400   -2.5699    3.2455 H         1 <0>         0.0817
     45 H12        -4.6455   -0.9517    3.9869 H         1 <0>         0.0316
     46 H13         0.2993   -4.8856    2.6927 H         1 <0>         0.1483
     47 H14         2.3567   -5.3507    3.9623 H         1 <0>         0.1133
     48 H15         4.5416   -5.3034    2.8279 H         1 <0>         0.1147
     49 H16         4.6698   -4.7911    0.4233 H         1 <0>         0.1181
     50 H17        -0.9490   -6.7850   -0.3419 H         1 <0>         0.0260
     51 H18         0.0817   -6.6840    1.1064 H         1 <0>         0.0789
     52 H19        -1.9404   -8.1684    1.4126 H         1 <0>         0.0760
     53 H20        -1.8778   -6.8107    2.5673 H         1 <0>         0.0678
     54 H21        -4.4393   -4.9653    0.3722 H         1 <0>         0.0724
     55 H22        -3.5267   -4.6971    1.8808 H         1 <0>         0.0697
     56 H23        -2.4114   -3.4882    0.0684 H         1 <0>         0.0903
     57 H24        -2.3739   -4.9584   -0.9352 H         1 <0>         0.0222
     58 H25        -3.0878   -9.2424    0.9855 H         1 <0>         0.1200
     59 H26        -4.8820  -10.8236    0.4046 H         1 <0>         0.1147
     60 H27        -7.1127   -9.9855   -0.2104 H         1 <0>         0.1114
     61 H28        -7.5569   -7.5651   -0.2447 H         1 <0>         0.1148
     62 H29        -5.7730   -5.9757    0.3451 H         1 <0>         0.1199
@<TRIPOS>BOND
     1    1    2 1
     2    1   35 1
     3    1   36 1
     4    1   37 1
     5    2    8 1
     6    2    3 2
     7    3    4 1
     8    3   38 1
     9    4    5 2
    10    4   34 1
    11    5    6 1
    12    5   13 1
    13    6    7 2
    14    6    8 am
    15    8    9 1
    16    9   10 1
    17    9   39 1
    18    9   40 1
    19   10   11 1
    20   10   41 1
    21   10   42 1
    22   11   12 1
    23   12   43 1
    24   12   44 1
    25   12   45 1
    26   13   14 1
    27   13   15 1
    28   13   22 1
    29   15   20 ar
    30   15   16 ar
    31   16   17 ar
    32   16   46 1
    33   17   18 ar
    34   17   47 1
    35   18   19 ar
    36   18   48 1
    37   19   20 ar
    38   19   49 1
    39   20   21 1
    40   22   27 1
    41   22   23 1
    42   23   24 1
    43   23   50 1
    44   23   51 1
    45   24   25 1
    46   24   52 1
    47   24   53 1
    48   25   26 1
    49   25   28 1
    50   26   27 1
    51   26   54 1
    52   26   55 1
    53   27   56 1
    54   27   57 1
    55   28   33 ar
    56   28   29 ar
    57   29   30 ar
    58   29   58 1
    59   30   31 ar
    60   30   59 1
    61   31   32 ar
    62   31   60 1
    63   32   33 ar
    64   32   61 1
    65   33   62 1
@<TRIPOS>MOLECULE
ZINC58700510
   46    48     0     0     0
SMALL
USER_CHARGES

@<TRIPOS>ATOM
      1 C1          4.0411   -1.2729   -3.0967 C.3       1 <0>        -0.1547
      2 C2          3.3444   -0.2693   -2.1756 C.3       1 <0>         0.0889
      3 N1          3.6811   -0.5702   -0.7819 N.pl3     1 <0>        -0.4922
      4 C3          2.9055   -1.4234   -0.0787 C.2       1 <0>         0.5020
      5 O1          1.8293   -2.0001   -0.6415 O.3       1 <0>        -0.6092
      6 C4          3.2538   -1.6946    1.2616 C.ar      1 <0>        -0.2239
      7 C5          2.4977   -2.5695    2.0545 C.ar      1 <0>        -0.0111
      8 C6          2.8656   -2.8065    3.3438 C.ar      1 <0>        -0.1477
      9 C7          3.9970   -2.1844    3.8940 C.ar      1 <0>        -0.0706
     10 C8          4.7634   -1.3153    3.1351 C.ar      1 <0>        -0.1247
     11 C9          4.4006   -1.0584    1.8050 C.ar      1 <0>         0.2143
     12 N2          5.1129   -0.2251    1.0333 N.2       1 <0>        -0.5558
     13 C10         4.7601    0.0022   -0.2226 C.2       1 <0>         0.5050
     14 S1          5.7097    1.0697   -1.1659 S.2       1 <0>        -0.7110
     15 C11         4.3748   -2.4594    5.2997 C.2       1 <0>         0.5678
     16 O2          3.5281   -2.4415    6.1711 O.2       1 <0>        -0.5292
     17 N3          5.6578   -2.7295    5.6122 N.am      1 <0>        -0.6028
     18 C12         6.6988   -2.6262    4.5867 C.3       1 <0>         0.0814
     19 C13         7.3963   -1.2694    4.7028 C.3       1 <0>        -0.1743
     20 C14         6.0112   -3.1263    6.9775 C.3       1 <0>         0.1561
     21 C15         5.9290   -4.6259    7.1019 C.ar      1 <0>        -0.1337
     22 C16         4.8147   -5.2122    7.6717 C.ar      1 <0>        -0.0388
     23 C17         4.7391   -6.5885    7.7860 C.ar      1 <0>        -0.1053
     24 C18         5.7788   -7.3792    7.3300 C.ar      1 <0>        -0.0594
     25 C19         6.8934   -6.7945    6.7602 C.ar      1 <0>        -0.1508
     26 C20         6.9672   -5.4168    6.6403 C.ar      1 <0>         0.1286
     27 F1          8.0543   -4.8447    6.0781 F         1 <0>        -0.1271
     28 Br1         3.2143   -7.3897    8.5663 Br        1 <0>        -0.0411
     29 H1          3.7087   -2.2818   -2.8523 H         1 <0>         0.0505
     30 H2          3.7906   -1.0490   -4.1336 H         1 <0>         0.0681
     31 H3          5.1202   -1.2028   -2.9603 H         1 <0>         0.0676
     32 H4          3.6768    0.7396   -2.4200 H         1 <0>         0.1162
     33 H5          2.2652   -0.3393   -2.3120 H         1 <0>         0.0856
     34 H6          1.6246   -3.0544    1.6433 H         1 <0>         0.1356
     35 H7          2.2796   -3.4810    3.9505 H         1 <0>         0.1269
     36 H8          5.6327   -0.8393    3.5641 H         1 <0>         0.1507
     37 H9          7.4287   -3.4233    4.7284 H         1 <0>         0.0849
     38 H10         6.2466   -2.7190    3.5993 H         1 <0>         0.0973
     39 H11         7.9898   -1.2430    5.6166 H         1 <0>         0.0579
     40 H12         8.0481   -1.1211    3.8418 H         1 <0>         0.0772
     41 H13         6.6479   -0.4775    4.7326 H         1 <0>         0.0669
     42 H14         7.0266   -2.7983    7.1998 H         1 <0>         0.0944
     43 H15         5.3181   -2.6648    7.6809 H         1 <0>         0.1031
     44 H16         4.0029   -4.5955    8.0282 H         1 <0>         0.1481
     45 H17         5.7192   -8.4538    7.4199 H         1 <0>         0.1426
     46 H18         7.7052   -7.4119    6.4049 H         1 <0>         0.1456
@<TRIPOS>BOND
     1    1    2 1
     2    1   29 1
     3    1   30 1
     4    1   31 1
     5    2    3 1
     6    2   32 1
     7    2   33 1
     8    3   13 1
     9    3    4 1
    10    4    5 1
    11    4    6 2
    12    6   11 ar
    13    6    7 ar
    14    7    8 ar
    15    7   34 1
    16    8    9 ar
    17    8   35 1
    18    9   10 ar
    19    9   15 1
    20   10   11 ar
    21   10   36 1
    22   11   12 2
    23   12   13 1
    24   13   14 2
    25   15   16 2
    26   15   17 am
    27   17   18 1
    28   17   20 1
    29   18   19 1
    30   18   37 1
    31   18   38 1
    32   19   39 1
    33   19   40 1
    34   19   41 1
    35   20   21 1
    36   20   42 1
    37   20   43 1
    38   21   26 ar
    39   21   22 ar
    40   22   23 ar
    41   22   44 1
    42   23   24 ar
    43   23   28 1
    44   24   25 ar
    45   24   45 1
    46   25   26 ar
    47   25   46 1
    48   26   27 1
@<TRIPOS>MOLECULE
ZINC39731262
   53    58     0     0     0
SMALL
USER_CHARGES

@<TRIPOS>ATOM
      1 C1         -0.0167    1.3780    0.0096 C.ar      1 <0>        -0.1315
      2 C2          1.1706    2.0866    0.0021 C.ar      1 <0>        -0.0878
      3 C3          2.3773    1.4137   -0.0131 C.ar      1 <0>        -0.1561
      4 C4          2.3974    0.0291   -0.0207 C.ar      1 <0>         0.1177
      5 C5          1.2080   -0.6793   -0.0132 C.ar      1 <0>        -0.1064
      6 C6          0.0021   -0.0041    0.0020 C.ar      1 <0>        -0.0721
      7 C7          1.2281   -2.1862   -0.0220 C.3       1 <0>        -0.0697
      8 S1          1.2528   -2.8005    1.6846 S.3       1 <0>         0.0098
      9 C8          1.2746   -4.5534    1.5064 C.2       1 <0>         0.4333
     10 N1          1.2752   -5.0721    0.2843 N.2       1 <0>        -0.6835
     11 C9          1.1991   -6.3796    0.0846 C.2       1 <0>         0.5261
     12 O1          1.2527   -6.8158   -1.0493 O.2       1 <0>        -0.5003
     13 C10         1.0488   -7.3278    1.2317 C.3       1 <0>        -0.2173
     14 H1          0.0350   -7.7277    1.2112 H         1 <0>         0.1199
     15 C11         2.0224   -8.4979    1.1368 C.3       1 <0>         0.0687
     16 H2          1.7557   -9.1307    0.2903 H         1 <0>         0.1056
     17 C12         1.9285   -9.2959    2.4212 C.2       1 <0>        -0.3842
     18 C13         1.6622   -8.6343    3.6232 C.2       1 <0>         0.3018
     19 C14         1.6061   -9.4114    4.9174 C.3       1 <0>        -0.0839
     20 C15         1.1004  -10.8278    4.6301 C.3       1 <0>        -0.1103
     21 C16         2.0351  -11.4862    3.6114 C.3       1 <0>        -0.1353
     22 C17         2.1043  -10.6358    2.3729 C.2       1 <0>         0.3480
     23 O2          2.3467  -11.2232    1.1868 O.3       1 <0>        -0.6033
     24 N2          1.4290   -7.3358    3.6510 N.2       1 <0>        -0.6062
     25 C18         1.2478   -6.6256    2.5463 C.2       1 <0>         0.4927
     26 N3          1.2953   -5.3101    2.6032 N.2       1 <0>        -0.6129
     27 C19         3.4261   -7.9786    0.9611 C.ar      1 <0>        -0.0498
     28 C20         3.9867   -7.1651    1.9282 C.ar      1 <0>        -0.1135
     29 C21         5.2742   -6.6867    1.7717 C.ar      1 <0>        -0.0974
     30 C22         6.0060   -7.0214    0.6439 C.ar      1 <0>         0.0184
     31 C23         5.4413   -7.8408   -0.3303 C.ar      1 <0>         0.0270
     32 C24         4.1525   -8.3214   -0.1641 C.ar      1 <0>        -0.0723
     33 O3          6.3526   -8.0213   -1.3304 O.3       1 <0>        -0.3106
     34 C25         7.3274   -6.9761   -1.1555 C.3       1 <0>         0.2134
     35 O4          7.2712   -6.6885    0.2543 O.3       1 <0>        -0.3130
     36 F1          3.5766   -0.6299   -0.0360 F         1 <0>        -0.1300
     37 H3         -0.9594    1.9048    0.0260 H         1 <0>         0.1312
     38 H4          1.1547    3.1665    0.0077 H         1 <0>         0.1323
     39 H5          3.3046    1.9675   -0.0193 H         1 <0>         0.1365
     40 H6         -0.9259   -0.5565    0.0083 H         1 <0>         0.1368
     41 H7          0.3381   -2.5585   -0.5293 H         1 <0>         0.1095
     42 H8          2.1178   -2.5346   -0.5465 H         1 <0>         0.1077
     43 H9          2.6029   -9.4623    5.3554 H         1 <0>         0.0915
     44 H10         0.9269   -8.9157    5.6110 H         1 <0>         0.0899
     45 H11         1.0973  -11.4089    5.5523 H         1 <0>         0.0764
     46 H12         0.0908  -10.7798    4.2222 H         1 <0>         0.0687
     47 H13         3.0317  -11.5828    4.0420 H         1 <0>         0.0894
     48 H14         1.6533  -12.4739    3.3532 H         1 <0>         0.0834
     49 H15         3.4175   -6.9026    2.8076 H         1 <0>         0.1424
     50 H16         5.7096   -6.0514    2.5288 H         1 <0>         0.1303
     51 H17         3.7136   -8.9606   -0.9158 H         1 <0>         0.1342
     52 H18         8.3204   -7.3278   -1.4353 H         1 <0>         0.1261
     53 H19         7.0537   -6.0958   -1.7371 H         1 <0>         0.0785
@<TRIPOS>BOND
     1    1    6 ar
     2    1    2 ar
     3    1   37 1
     4    2    3 ar
     5    2   38 1
     6    3    4 ar
     7    3   39 1
     8    4    5 ar
     9    4   36 1
    10    5    6 ar
    11    5    7 1
    12    6   40 1
    13    7    8 1
    14    7   41 1
    15    7   42 1
    16    8    9 1
    17    9   26 1
    18    9   10 2
    19   10   11 1
    20   11   12 2
    21   11   13 1
    22   13   14 1
    23   13   25 1
    24   13   15 1
    25   15   16 1
    26   15   17 1
    27   15   27 1
    28   17   22 2
    29   17   18 1
    30   18   19 1
    31   18   24 2
    32   19   20 1
    33   19   43 1
    34   19   44 1
    35   20   21 1
    36   20   45 1
    37   20   46 1
    38   21   22 1
    39   21   47 1
    40   21   48 1
    41   22   23 1
    42   24   25 1
    43   25   26 2
    44   27   32 ar
    45   27   28 ar
    46   28   29 ar
    47   28   49 1
    48   29   30 ar
    49   29   50 1
    50   30   35 1
    51   30   31 ar
    52   31   32 ar
    53   31   33 1
    54   32   51 1
    55   33   34 1
    56   34   35 1
    57   34   52 1
    58   34   53 1
@<TRIPOS>MOLECULE
ZINC45941059
   53    56     0     0     0
SMALL
USER_CHARGES

@<TRIPOS>ATOM
      1 C1         -0.0067    1.5156    0.0140 C.3       1 <0>        -0.1706
      2 C2          0.0018   -0.0144    0.0049 C.3       1 <0>         0.1276
      3 N1          0.6864   -0.4918   -1.1991 N.am      1 <0>        -0.5407
      4 C3          0.0850   -0.7546   -2.4300 C.ar      1 <0>         0.1510
      5 C4         -1.2225   -0.6654   -2.8862 C.ar      1 <0>        -0.2444
      6 C5         -1.5213   -1.0044   -4.1952 C.ar      1 <0>         0.3173
      7 C6         -0.5090   -1.4354   -5.0551 C.ar      1 <0>        -0.1445
      8 C7          0.7970   -1.5248   -4.6003 C.ar      1 <0>        -0.0630
      9 C8          1.0970   -1.1853   -3.2892 C.ar      1 <0>         0.0044
     10 N2          2.2828   -1.1711   -2.5542 N.am      1 <0>        -0.5344
     11 C9          2.0040   -0.7459   -1.3076 C.2       1 <0>         0.6780
     12 O1          2.8190   -0.6139   -0.4135 O.2       1 <0>        -0.5820
     13 C10         3.6066   -1.5489   -3.0551 C.3       1 <0>         0.1349
     14 C11         4.3030   -0.3165   -3.6358 C.3       1 <0>        -0.1681
     15 S1         -0.8927   -1.8666   -6.7199 S.3       1 <0>         0.0378
     16 C12         0.6787   -2.1849   -7.4507 C.ar      1 <0>        -0.1434
     17 C13         1.1664   -3.4848   -7.5155 C.ar      1 <0>        -0.0699
     18 C14         2.3980   -3.7305   -8.0894 C.ar      1 <0>        -0.1339
     19 C15         3.1461   -2.6849   -8.5994 C.ar      1 <0>        -0.1036
     20 C16         2.6642   -1.3900   -8.5363 C.ar      1 <0>        -0.1332
     21 C17         1.4309   -1.1374   -7.9690 C.ar      1 <0>        -0.0691
     22 N3         -2.8416   -0.9154   -4.6574 N.2       1 <0>        -1.0713
     23 S2         -4.0429   -0.4049   -3.6383 S.o2      1 <0>         2.6036
     24 O2         -4.1716   -1.3996   -2.6317 O.2       1 <0>        -1.0226
     25 O3         -3.7667    0.9554   -3.3341 O.2       1 <0>        -1.0223
     26 C18        -5.5466   -0.4203   -4.5566 C.ar      1 <0>        -0.6036
     27 C19        -5.9390    0.7040   -5.2592 C.ar      1 <0>        -0.0185
     28 C20        -7.1184    0.6927   -5.9798 C.ar      1 <0>        -0.1330
     29 C21        -7.9066   -0.4428   -5.9981 C.ar      1 <0>        -0.0734
     30 C22        -7.5146   -1.5680   -5.2955 C.ar      1 <0>        -0.0592
     31 C23        -6.3307   -1.5580   -4.5792 C.ar      1 <0>        -0.0124
     32 Cl1        -8.5039   -2.9943   -5.3180 Cl        1 <0>        -0.0736
     33 H1          1.0189    1.8846    0.0088 H         1 <0>         0.0588
     34 H2         -0.5290    1.8812   -0.8701 H         1 <0>         0.0652
     35 H3         -0.5161    1.8707    0.9098 H         1 <0>         0.0704
     36 H4          0.5241   -0.3801    0.8890 H         1 <0>         0.0876
     37 H5         -1.0238   -0.3835    0.0102 H         1 <0>         0.0878
     38 H6         -2.0057   -0.3325   -2.2213 H         1 <0>         0.1108
     39 H7          1.5798   -1.8584   -5.2654 H         1 <0>         0.1162
     40 H8          4.2034   -1.9516   -2.2367 H         1 <0>         0.0845
     41 H9          3.4986   -2.3053   -3.8325 H         1 <0>         0.0817
     42 H10         5.2880   -0.5976   -4.0085 H         1 <0>         0.0674
     43 H11         3.7062    0.0862   -4.4541 H         1 <0>         0.0605
     44 H12         4.4110    0.4398   -2.8584 H         1 <0>         0.0593
     45 H13         0.5829   -4.3017   -7.1172 H         1 <0>         0.1304
     46 H14         2.7777   -4.7402   -8.1398 H         1 <0>         0.1220
     47 H15         4.1091   -2.8801   -9.0477 H         1 <0>         0.1195
     48 H16         3.2513   -0.5760   -8.9352 H         1 <0>         0.1218
     49 H17         1.0533   -0.1266   -7.9241 H         1 <0>         0.1298
     50 H18        -5.3239    1.5916   -5.2446 H         1 <0>         0.1436
     51 H19        -7.4244    1.5713   -6.5284 H         1 <0>         0.1369
     52 H20        -8.8285   -0.4513   -6.5607 H         1 <0>         0.1348
     53 H21        -6.0218   -2.4377   -4.0340 H         1 <0>         0.1470
@<TRIPOS>BOND
     1    1    2 1
     2    1   33 1
     3    1   34 1
     4    1   35 1
     5    2    3 1
     6    2   36 1
     7    2   37 1
     8    3   11 am
     9    3    4 1
    10    4    9 ar
    11    4    5 ar
    12    5    6 ar
    13    5   38 1
    14    6    7 ar
    15    6   22 1
    16    7    8 ar
    17    7   15 1
    18    8    9 ar
    19    8   39 1
    20    9   10 1
    21   10   11 am
    22   10   13 1
    23   11   12 2
    24   13   14 1
    25   13   40 1
    26   13   41 1
    27   14   42 1
    28   14   43 1
    29   14   44 1
    30   15   16 1
    31   16   21 ar
    32   16   17 ar
    33   17   18 ar
    34   17   45 1
    35   18   19 ar
    36   18   46 1
    37   19   20 ar
    38   19   47 1
    39   20   21 ar
    40   20   48 1
    41   21   49 1
    42   22   23 1
    43   23   24 2
    44   23   25 2
    45   23   26 1
    46   26   31 ar
    47   26   27 ar
    48   27   28 ar
    49   27   50 1
    50   28   29 ar
    51   28   51 1
    52   29   30 ar
    53   29   52 1
    54   30   31 ar
    55   30   32 1
    56   31   53 1
@<TRIPOS>MOLECULE
ZINC13315285
   39    40     0     0     0
SMALL
USER_CHARGES
(E)-3-[4-[2-(3-fluorophenyl)ethylsulfamoyl]phenyl]prop-2-enoic acid
@<TRIPOS>ATOM
      1 C1          1.1756    1.7828    0.0004 C.ar      1 <0>        -0.0880
      2 C2         -0.0126    1.0758    0.0080 C.ar      1 <0>        -0.1249
      3 C3         -1.2192    1.7501    0.0173 C.ar      1 <0>        -0.0560
      4 C4         -1.2391    3.1321    0.0307 C.ar      1 <0>        -0.1485
      5 C5         -0.0501    3.8410    0.0232 C.ar      1 <0>         0.1016
      6 C6          1.1581    3.1645    0.0080 C.ar      1 <0>        -0.1559
      7 F1         -0.0684    5.1919    0.0301 F         1 <0>        -0.1384
      8 C7         -2.5134    0.9780    0.0188 C.3       1 <0>        -0.0867
      9 C8         -2.9448    0.7084    1.4617 C.3       1 <0>         0.1184
     10 N1         -4.2030   -0.0421    1.4631 N.pl3     1 <0>        -1.1192
     11 S1         -4.7176   -0.7930    2.8465 S.o2      1 <0>         2.6987
     12 O1         -5.9630   -1.4037    2.5378 O.2       1 <0>        -0.9622
     13 O2         -3.6099   -1.5310    3.3442 O.2       1 <0>        -0.9595
     14 C9         -5.0548    0.4685    4.0295 C.ar      1 <0>        -0.6972
     15 C10        -4.0536    0.8960    4.8842 C.ar      1 <0>        -0.0170
     16 C11        -4.3080    1.8867    5.8089 C.ar      1 <0>        -0.1453
     17 C12        -5.5847    2.4520    5.8891 C.ar      1 <0>         0.0311
     18 C13        -6.5925    2.0106    5.0257 C.ar      1 <0>        -0.1399
     19 C14        -6.3209    1.0227    4.1030 C.ar      1 <0>        -0.0164
     20 C15        -5.8663    3.5057    6.8772 C.2       1 <0>        -0.1433
     21 C16        -4.8915    3.9290    7.7084 C.2       1 <0>        -0.1155
     22 C17        -5.1713    4.9759    8.6903 C.2       1 <0>         0.4701
     23 O3         -6.2828    5.4652    8.7576 O.co2     1 <0>        -0.6286
     24 H1          2.1178    1.2550   -0.0118 H         1 <0>         0.1340
     25 H2          0.0021   -0.0041    0.0020 H         1 <0>         0.1320
     26 H3         -2.1820    3.6586    0.0425 H         1 <0>         0.1370
     27 H4          2.0863    3.7165    0.0017 H         1 <0>         0.1350
     28 H5         -3.2837    1.5592   -0.4882 H         1 <0>         0.0849
     29 H6         -2.3719    0.0305   -0.5012 H         1 <0>         0.0876
     30 H7         -2.1745    0.1273    1.9687 H         1 <0>         0.0851
     31 H8         -3.0864    1.6559    1.9817 H         1 <0>         0.0715
     32 H9         -4.7346   -0.0991    0.6538 H         1 <0>         0.4181
     33 H10        -3.0693    0.4556    4.8237 H         1 <0>         0.1375
     34 H11        -3.5246    2.2224    6.4722 H         1 <0>         0.1377
     35 H12        -7.5810    2.4421    5.0819 H         1 <0>         0.1351
     36 H13        -7.0981    0.6807    3.4356 H         1 <0>         0.1372
     37 H14        -6.8533    3.9401    6.9370 H         1 <0>         0.1340
     38 H15        -3.9045    3.4946    7.6486 H         1 <0>         0.1109
     39 O4         -4.1966    5.3992    9.5214 O.co2     1 <0>        -0.7548
@<TRIPOS>BOND
     1    1    6 ar
     2    1    2 ar
     3    1   24 1
     4    2    3 ar
     5    2   25 1
     6    3    4 ar
     7    3    8 1
     8    4    5 ar
     9    4   26 1
    10    5    6 ar
    11    5    7 1
    12    6   27 1
    13    8    9 1
    14    8   28 1
    15    8   29 1
    16    9   10 1
    17    9   30 1
    18    9   31 1
    19   10   11 1
    20   10   32 1
    21   11   12 2
    22   11   13 2
    23   11   14 1
    24   14   19 ar
    25   14   15 ar
    26   15   16 ar
    27   15   33 1
    28   16   17 ar
    29   16   34 1
    30   17   18 ar
    31   17   20 1
    32   18   19 ar
    33   18   35 1
    34   19   36 1
    35   20   21 2
    36   20   37 1
    37   21   22 1
    38   21   38 1
    39   22   23 2
    40   22   39 1
@<TRIPOS>MOLECULE
ZINC40076069
   46    49     0     0     0
SMALL
USER_CHARGES

@<TRIPOS>ATOM
      1 C1          3.1143    0.8280   -3.9579 C.ar      1 <0>        -0.1077
      2 C2          3.4240    1.5857   -2.8420 C.ar      1 <0>        -0.1377
      3 C3          3.6737    0.9693   -1.6337 C.ar      1 <0>        -0.0754
      4 C4          3.6134   -0.4226   -1.5378 C.ar      1 <0>        -0.1347
      5 C5          3.3003   -1.1811   -2.6679 C.ar      1 <0>        -0.0657
      6 C6          3.0529   -0.5518   -3.8700 C.ar      1 <0>        -0.1386
      7 C7          3.8804   -1.0903   -0.2459 C.2       1 <0>         0.5042
      8 O1          4.2143   -0.4323    0.7214 O.2       1 <0>        -0.4736
      9 C8          3.7428   -2.5451   -0.1305 C.2       1 <0>        -0.5008
     10 C9          4.7376   -3.4347    0.0963 C.2       1 <0>         0.2607
     11 C10         4.1685   -4.7984    0.1407 C.2       1 <0>         0.5100
     12 O2          4.8072   -5.8147    0.3283 O.2       1 <0>        -0.5387
     13 N1          2.8386   -4.7475   -0.0567 N.am      1 <0>        -0.6073
     14 C11         2.4624   -3.3403   -0.2353 C.3       1 <0>         0.2619
     15 H1          2.0116   -3.1971   -1.2174 H         1 <0>         0.0688
     16 C12         1.4997   -2.9169    0.8441 C.ar      1 <0>        -0.0480
     17 C13         1.8043   -3.1285    2.1539 C.ar      1 <0>        -0.0504
     18 C14         0.9269   -2.7440    3.1656 C.ar      1 <0>        -0.1067
     19 C15        -0.2606   -2.1459    2.8737 C.ar      1 <0>        -0.1211
     20 C16        -0.6095   -1.9109    1.5331 C.ar      1 <0>        -0.0515
     21 C17         0.2858   -2.2965    0.5041 C.ar      1 <0>        -0.0297
     22 C18        -0.0608   -2.0560   -0.8366 C.ar      1 <0>        -0.1019
     23 C19        -1.2453   -1.4527   -1.1280 C.ar      1 <0>        -0.1270
     24 C20        -2.1228   -1.0677   -0.1159 C.ar      1 <0>        -0.1276
     25 C21        -1.8269   -1.2964    1.1927 C.ar      1 <0>        -0.1089
     26 C22         1.9265   -5.8937   -0.0822 C.3       1 <0>         0.1385
     27 C23         1.5372   -6.2677    1.3494 C.3       1 <0>         0.0565
     28 O3          0.6172   -5.3012    1.8608 O.3       1 <0>        -0.5493
     29 O4          6.0447   -3.1251    0.2564 O.3       1 <0>        -0.6561
     30 H2          2.9152    1.3159   -4.9006 H         1 <0>         0.1176
     31 H3          3.4706    2.6620   -2.9176 H         1 <0>         0.1198
     32 H4          3.9156    1.5618   -0.7637 H         1 <0>         0.1272
     33 H5          3.2524   -2.2579   -2.6007 H         1 <0>         0.1315
     34 H6          2.8107   -1.1371   -4.7447 H         1 <0>         0.1209
     35 H7          2.7399   -3.6020    2.4126 H         1 <0>         0.1088
     36 H8          1.1927   -2.9235    4.1969 H         1 <0>         0.1123
     37 H9         -0.9311   -1.8538    3.6683 H         1 <0>         0.1153
     38 H10         0.6096   -2.3483   -1.6313 H         1 <0>         0.1238
     39 H11        -1.5091   -1.2691   -2.1591 H         1 <0>         0.1149
     40 H12        -3.0564   -0.5903   -0.3745 H         1 <0>         0.1135
     41 H13        -2.5169   -0.9933    1.9663 H         1 <0>         0.1177
     42 H14         1.0308   -5.6327   -0.6459 H         1 <0>         0.0837
     43 H15         2.4209   -6.7409   -0.5575 H         1 <0>         0.0880
     44 H16         1.0695   -7.2522    1.3533 H         1 <0>         0.0475
     45 H17         2.4294   -6.2868    1.9753 H         1 <0>         0.0484
     46 H18         0.3701   -5.4438    2.7847 H         1 <0>         0.3669
@<TRIPOS>BOND
     1    1    6 ar
     2    1    2 ar
     3    1   30 1
     4    2    3 ar
     5    2   31 1
     6    3    4 ar
     7    3   32 1
     8    4    5 ar
     9    4    7 1
    10    5    6 ar
    11    5   33 1
    12    6   34 1
    13    7    8 2
    14    7    9 1
    15    9   14 1
    16    9   10 2
    17   10   11 1
    18   10   29 1
    19   11   12 2
    20   11   13 am
    21   13   14 1
    22   13   26 1
    23   14   15 1
    24   14   16 1
    25   16   21 ar
    26   16   17 ar
    27   17   18 ar
    28   17   35 1
    29   18   19 ar
    30   18   36 1
    31   19   20 ar
    32   19   37 1
    33   20   25 ar
    34   20   21 ar
    35   21   22 ar
    36   22   23 ar
    37   22   38 1
    38   23   24 ar
    39   23   39 1
    40   24   25 ar
    41   24   40 1
    42   25   41 1
    43   26   27 1
    44   26   42 1
    45   26   43 1
    46   27   28 1
    47   27   44 1
    48   27   45 1
    49   28   46 1
@<TRIPOS>MOLECULE
ZINC54468355
   34    34     0     0     0
SMALL
USER_CHARGES

@<TRIPOS>ATOM
      1 C1         -0.5195    1.5759   -0.7388 C.3       1 <0>        -0.1523
      2 C2         -0.4094    0.0554   -0.6083 C.3       1 <0>        -0.1212
      3 C3          0.4893   -0.4882   -1.7208 C.3       1 <0>        -0.0962
      4 H1          1.4524    0.0214   -1.6915 H         1 <0>         0.0790
      5 C4         -0.1751   -0.2455   -3.0775 C.3       1 <0>        -0.1522
      6 C5          0.7005   -1.9899   -1.5177 C.3       1 <0>         0.1187
      7 N1          1.6552   -2.4875   -2.5114 N.pl3     1 <0>        -1.1118
      8 S1          2.3607   -3.9722   -2.3108 S.o2      1 <0>         2.6927
      9 O1          3.1971   -4.1804   -3.4406 O.2       1 <0>        -0.9466
     10 O2          2.8555   -4.0102   -0.9793 O.2       1 <0>        -0.9616
     11 C6          1.0774   -5.1759   -2.4057 C.ar      1 <0>        -0.6666
     12 C7          0.7796   -5.9537   -1.3005 C.ar      1 <0>        -0.0327
     13 C8         -0.2237   -6.8974   -1.3671 C.ar      1 <0>        -0.0928
     14 C9         -0.9408   -7.0677   -2.5543 C.ar      1 <0>        -0.0688
     15 C10        -0.6355   -6.2795   -3.6663 C.ar      1 <0>        -0.0748
     16 C11         0.3678   -5.3351   -3.5838 C.ar      1 <0>        -0.0146
     17 Br1         0.7784   -4.2610   -5.0850 Br        1 <0>        -0.0439
     18 C12        -2.0153   -8.0758   -2.6329 C.2       1 <0>         0.5171
     19 O3         -2.2800   -8.7647   -1.6577 O.co2     1 <0>        -0.6722
     20 O4         -2.6411   -8.2226   -3.6732 O.co2     1 <0>        -0.6723
     21 H2          0.4721    2.0205   -0.6548 H         1 <0>         0.0530
     22 H3         -0.9494    1.8271   -1.7085 H         1 <0>         0.0567
     23 H4         -1.1598    1.9632    0.0538 H         1 <0>         0.0533
     24 H5          0.0204   -0.1958    0.3614 H         1 <0>         0.0661
     25 H6         -1.4010   -0.3892   -0.6924 H         1 <0>         0.0668
     26 H7          0.4651   -0.6328   -3.8701 H         1 <0>         0.0561
     27 H8         -1.1382   -0.7551   -3.1068 H         1 <0>         0.0598
     28 H9         -0.3256    0.8243   -3.2221 H         1 <0>         0.0586
     29 H10         1.0916   -2.1696   -0.5163 H         1 <0>         0.0807
     30 H11        -0.2503   -2.5097   -1.6352 H         1 <0>         0.0677
     31 H12         1.8740   -1.9473   -3.2867 H         1 <0>         0.4175
     32 H13         1.3347   -5.8215   -0.3835 H         1 <0>         0.1457
     33 H14        -0.4544   -7.5038   -0.5037 H         1 <0>         0.1448
     34 H15        -1.1857   -6.4058   -4.5870 H         1 <0>         0.1465
@<TRIPOS>BOND
     1    1    2 1
     2    1   21 1
     3    1   22 1
     4    1   23 1
     5    2    3 1
     6    2   24 1
     7    2   25 1
     8    3    4 1
     9    3    5 1
    10    3    6 1
    11    5   26 1
    12    5   27 1
    13    5   28 1
    14    6    7 1
    15    6   29 1
    16    6   30 1
    17    7    8 1
    18    7   31 1
    19    8    9 2
    20    8   10 2
    21    8   11 1
    22   11   16 ar
    23   11   12 ar
    24   12   13 ar
    25   12   32 1
    26   13   14 ar
    27   13   33 1
    28   14   15 ar
    29   14   18 1
    30   15   16 ar
    31   15   34 1
    32   16   17 1
    33   18   19 2
    34   18   20 1
@<TRIPOS>MOLECULE
ZINC16639265
   53    54     0     0     0
SMALL
USER_CHARGES

@<TRIPOS>ATOM
      1 C1          0.5914    2.1671   -1.6919 C.3       1 <0>        -0.1512
      2 C2          0.5974    0.6598   -1.4295 C.3       1 <0>        -0.1219
      3 C3          1.1383   -0.0700   -2.6606 C.3       1 <0>        -0.1190
      4 C4          1.1443   -1.5773   -2.3982 C.3       1 <0>         0.0603
      5 O1          1.6495   -2.2590   -3.5481 O.3       1 <0>        -0.3204
      6 C5          1.7213   -3.6144   -3.4798 C.ar      1 <0>         0.1123
      7 C6          1.3084   -4.2751   -2.3319 C.ar      1 <0>        -0.2120
      8 C7          1.3820   -5.6530   -2.2651 C.ar      1 <0>        -0.0766
      9 C8          1.8669   -6.3735   -3.3410 C.ar      1 <0>        -0.0951
     10 C9          2.2794   -5.7173   -4.4860 C.ar      1 <0>        -0.0566
     11 C10         2.2021   -4.3400   -4.5600 C.ar      1 <0>        -0.1525
     12 C11         1.9465   -7.8765   -3.2652 C.3       1 <0>         0.0725
     13 H1          1.6127   -8.2069   -2.2816 H         1 <0>         0.0644
     14 C12         1.0604   -8.4755   -4.3187 C.2       1 <0>        -0.5175
     15 C13         1.4157   -9.5185   -5.0761 C.2       1 <0>         0.2911
     16 O2          0.5322   -9.9785   -5.9821 O.3       1 <0>        -0.7130
     17 C14         2.7473  -10.2037   -4.9705 C.3       1 <0>        -0.1371
     18 C15         3.4207   -9.8438   -3.6447 C.3       1 <0>         0.1527
     19 C16         3.3943   -8.3195   -3.4849 C.3       1 <0>        -0.1058
     20 H2          3.7884   -7.8487   -4.3856 H         1 <0>         0.0949
     21 C17         4.2306   -7.9237   -2.2954 C.2       1 <0>         0.3759
     22 O3          3.7289   -7.8609   -1.1987 O.2       1 <0>        -0.4638
     23 C18         5.6929   -7.6064   -2.4744 C.3       1 <0>        -0.1993
     24 C19         2.6610  -10.4974   -2.4886 C.3       1 <0>        -0.1784
     25 O4          4.7741  -10.3023   -3.6540 O.3       1 <0>        -0.5680
     26 C20        -0.2107   -7.9093   -4.5200 C.2       1 <0>         0.4624
     27 O5         -0.4688   -7.3531   -5.5687 O.2       1 <0>        -0.5038
     28 C21        -1.2530   -7.9924   -3.4347 C.3       1 <0>        -0.1989
     29 H3          1.6075    2.5043   -1.8969 H         1 <0>         0.0550
     30 H4         -0.0436    2.3839   -2.5509 H         1 <0>         0.0554
     31 H5          0.2060    2.6871   -0.8148 H         1 <0>         0.0552
     32 H6          1.2324    0.4431   -0.5705 H         1 <0>         0.0640
     33 H7         -0.4187    0.3227   -1.2245 H         1 <0>         0.0645
     34 H8          0.5033    0.1467   -3.5196 H         1 <0>         0.0726
     35 H9          2.1544    0.2671   -2.8656 H         1 <0>         0.0719
     36 H10         1.7792   -1.7941   -1.5392 H         1 <0>         0.0581
     37 H11         0.1282   -1.9145   -2.1933 H         1 <0>         0.0586
     38 H12         0.9302   -3.7127   -1.4910 H         1 <0>         0.1188
     39 H13         1.0607   -6.1678   -1.3717 H         1 <0>         0.1201
     40 H14         2.6581   -6.2823   -5.3248 H         1 <0>         0.1284
     41 H15         2.5203   -3.8283   -5.4563 H         1 <0>         0.1233
     42 H16         2.6034  -11.2830   -5.0215 H         1 <0>         0.0676
     43 H17         3.3835   -9.8865   -5.7968 H         1 <0>         0.0742
     44 H18         5.8112   -6.5428   -2.6813 H         1 <0>         0.0860
     45 H19         6.2342   -7.8618   -1.5634 H         1 <0>         0.0754
     46 H20         6.0908   -8.1851   -3.3079 H         1 <0>         0.0909
     47 H21         2.6672  -11.5799   -2.6157 H         1 <0>         0.0517
     48 H22         3.1426  -10.2395   -1.5455 H         1 <0>         0.0579
     49 H23         1.6318  -10.1384   -2.4811 H         1 <0>         0.0862
     50 H24         4.8647  -11.2583   -3.7683 H         1 <0>         0.3741
     51 H25        -0.8169   -8.4492   -2.5463 H         1 <0>         0.0648
     52 H26        -1.6055   -6.9899   -3.1919 H         1 <0>         0.0607
     53 H27        -2.0905   -8.5980   -3.7809 H         1 <0>         0.0692
@<TRIPOS>BOND
     1    1    2 1
     2    1   29 1
     3    1   30 1
     4    1   31 1
     5    2    3 1
     6    2   32 1
     7    2   33 1
     8    3    4 1
     9    3   34 1
    10    3   35 1
    11    4    5 1
    12    4   36 1
    13    4   37 1
    14    5    6 1
    15    6   11 ar
    16    6    7 ar
    17    7    8 ar
    18    7   38 1
    19    8    9 ar
    20    8   39 1
    21    9   10 ar
    22    9   12 1
    23   10   11 ar
    24   10   40 1
    25   11   41 1
    26   12   13 1
    27   12   19 1
    28   12   14 1
    29   14   15 2
    30   14   26 1
    31   15   16 1
    32   15   17 1
    33   17   18 1
    34   17   42 1
    35   17   43 1
    36   18   19 1
    37   18   24 1
    38   18   25 1
    39   19   20 1
    40   19   21 1
    41   21   22 2
    42   21   23 1
    43   23   44 1
    44   23   45 1
    45   23   46 1
    46   24   47 1
    47   24   48 1
    48   24   49 1
    49   25   50 1
    50   26   27 2
    51   26   28 1
    52   28   51 1
    53   28   52 1
    54   28   53 1
@<TRIPOS>MOLECULE
ZINC66776046
   52    53     0     0     0
SMALL
USER_CHARGES

@<TRIPOS>ATOM
      1 C1          1.9790   -1.4424   -0.0552 C.3       1 <0>        -0.1488
      2 C2          0.9478   -2.5649   -0.1871 C.3       1 <0>        -0.1194
      3 C3          1.0717   -3.2116   -1.5681 C.3       1 <0>        -0.0161
      4 C4          0.0560   -4.3173   -1.6980 C.2       1 <0>         0.1299
      5 N1          0.2305   -5.5678   -1.3760 N.2       1 <0>        -0.2957
      6 N2         -0.8397   -6.2383   -1.6149 N.2       1 <0>        -0.3470
      7 C5         -1.7627   -5.4448   -2.1066 C.2       1 <0>         0.3836
      8 N3         -1.2214   -4.1929   -2.1702 N.pl3     1 <0>        -0.4777
      9 C6         -1.8728   -2.9708   -2.6479 C.3       1 <0>         0.1067
     10 C7         -1.6357   -2.8211   -4.1286 C.2       1 <0>         0.5036
     11 O1         -0.9865   -3.6534   -4.7260 O.2       1 <0>        -0.4814
     12 N4         -2.1450   -1.7623   -4.7890 N.am      1 <0>        -0.6816
     13 C8         -1.8673   -1.5865   -6.1491 C.ar      1 <0>         0.1516
     14 C9         -0.5529   -1.5916   -6.5973 C.ar      1 <0>        -0.0602
     15 C10        -0.2821   -1.4177   -7.9404 C.ar      1 <0>        -0.1104
     16 C11        -1.3181   -1.2386   -8.8386 C.ar      1 <0>        -0.1244
     17 C12        -2.6280   -1.2326   -8.3954 C.ar      1 <0>        -0.1103
     18 C13        -2.9058   -1.4121   -7.0545 C.ar      1 <0>        -0.0826
     19 C14        -4.3339   -1.4126   -6.5735 C.3       1 <0>        -0.0569
     20 C15        -4.9875   -0.0721   -6.9149 C.3       1 <0>        -0.1414
     21 C16        -5.1026   -2.5441   -7.2589 C.3       1 <0>        -0.1418
     22 C17         0.5768   -1.7861   -5.6190 C.3       1 <0>        -0.0582
     23 C18         1.4914   -2.9089   -6.1128 C.3       1 <0>        -0.1343
     24 C19         1.3794   -0.4888   -5.5022 C.3       1 <0>        -0.1412
     25 S1         -3.3938   -5.9066   -2.5873 S.3       1 <0>        -0.8142
     26 H1          2.9812   -1.8538   -0.1752 H         1 <0>         0.0559
     27 H2          1.7997   -0.6920   -0.8252 H         1 <0>         0.0518
     28 H3          1.8907   -0.9817    0.9287 H         1 <0>         0.0536
     29 H4          1.1271   -3.3153    0.5829 H         1 <0>         0.0700
     30 H5         -0.0544   -2.1536   -0.0671 H         1 <0>         0.0574
     31 H6          0.8924   -2.4613   -2.3381 H         1 <0>         0.0650
     32 H7          2.0740   -3.6230   -1.6881 H         1 <0>         0.0875
     33 H8         -2.9440   -3.0311   -2.4558 H         1 <0>         0.1274
     34 H9         -1.4577   -2.1094   -2.1246 H         1 <0>         0.1073
     35 H10        -2.7041   -1.1222   -4.3215 H         1 <0>         0.4063
     36 H11         0.7400   -1.4212   -8.2894 H         1 <0>         0.1214
     37 H12        -1.1037   -1.1029   -9.8883 H         1 <0>         0.1198
     38 H13        -3.4349   -1.0922   -9.0994 H         1 <0>         0.1216
     39 H14        -4.3537   -1.5619   -5.4939 H         1 <0>         0.0776
     40 H15        -4.9678    0.0772   -7.9945 H         1 <0>         0.0559
     41 H16        -6.0205   -0.0724   -6.5670 H         1 <0>         0.0578
     42 H17        -4.4399    0.7340   -6.4266 H         1 <0>         0.0535
     43 H18        -4.6370   -3.4991   -7.0156 H         1 <0>         0.0600
     44 H19        -6.1356   -2.5444   -6.9110 H         1 <0>         0.0579
     45 H20        -5.0829   -2.3948   -8.3385 H         1 <0>         0.0539
     46 H21         0.1706   -2.0512   -4.6429 H         1 <0>         0.0823
     47 H22         1.8976   -2.6438   -7.0890 H         1 <0>         0.0468
     48 H23         2.3085   -3.0496   -5.4053 H         1 <0>         0.0516
     49 H24         0.9197   -3.8331   -6.1961 H         1 <0>         0.0663
     50 H25         1.7856   -0.2237   -6.4783 H         1 <0>         0.0532
     51 H26         0.7279    0.3111   -5.1504 H         1 <0>         0.0505
     52 H27         2.1965   -0.6295   -4.7946 H         1 <0>         0.0561
@<TRIPOS>BOND
     1    1    2 1
     2    1   26 1
     3    1   27 1
     4    1   28 1
     5    2    3 1
     6    2   29 1
     7    2   30 1
     8    3   31 1
     9    3   32 1
    10    3    4 1
    11    4    8 1
    12    4    5 2
    13    5    6 1
    14    6    7 2
    15    7   25 1
    16    7    8 1
    17    8    9 1
    18    9   10 1
    19    9   33 1
    20    9   34 1
    21   10   11 2
    22   10   12 am
    23   12   13 1
    24   12   35 1
    25   13   18 ar
    26   13   14 ar
    27   14   15 ar
    28   14   22 1
    29   15   16 ar
    30   15   36 1
    31   16   17 ar
    32   16   37 1
    33   17   18 ar
    34   17   38 1
    35   18   19 1
    36   19   20 1
    37   19   21 1
    38   19   39 1
    39   20   40 1
    40   20   41 1
    41   20   42 1
    42   21   43 1
    43   21   44 1
    44   21   45 1
    45   22   23 1
    46   22   24 1
    47   22   46 1
    48   23   47 1
    49   23   48 1
    50   23   49 1
    51   24   50 1
    52   24   51 1
    53   24   52 1
@<TRIPOS>MOLECULE
ZINC00138127
   38    41     0     0     0
SMALL
USER_CHARGES
4-(methylBLAHyl)benzoic acid
@<TRIPOS>ATOM
      1 C1          1.2193   -2.1886   -0.0318 C.3       1 <0>        -0.1142
      2 C2          1.2075   -0.6818   -0.0133 C.ar      1 <0>        -0.0557
      3 C3          0.0021   -0.0041    0.0020 C.ar      1 <0>        -0.1427
      4 C4         -0.0167    1.3798    0.0096 C.ar      1 <0>        -0.0951
      5 C5          1.1722    2.0816    0.0020 C.ar      1 <0>         0.0708
      6 C6          2.3942    1.4006    0.0059 C.ar      1 <0>         0.2040
      7 C7          2.4018    0.0145   -0.0112 C.ar      1 <0>        -0.1609
      8 N1          3.5961    2.1169    0.0542 N.pl3     1 <0>        -0.7469
      9 C8          3.6780    3.4612   -0.5408 C.3       1 <0>         0.2745
     10 H1          4.5036    4.0139   -0.0925 H         1 <0>         0.1094
     11 C9          2.3748    4.1694   -0.2580 C.2       1 <0>         0.0046
     12 N2          1.2039    3.4843   -0.0178 N.pl3     1 <0>        -0.3829
     13 C10         0.2063    4.3828    0.1594 C.2       1 <0>        -0.0022
     14 C11         0.7333    5.6239    0.0582 C.2       1 <0>        -0.1987
     15 C12         2.1135    5.4800   -0.2044 C.2       1 <0>        -0.1684
     16 C13         3.8865    3.3504   -2.0292 C.ar      1 <0>        -0.1142
     17 C14         3.2407    2.3563   -2.7429 C.ar      1 <0>        -0.1164
     18 C15         3.4226    2.2527   -4.1064 C.ar      1 <0>        -0.0785
     19 C16         4.2696    3.1467   -4.7644 C.ar      1 <0>        -0.1066
     20 C17         4.9225    4.1439   -4.0372 C.ar      1 <0>        -0.0872
     21 C18         4.7272    4.2397   -2.6750 C.ar      1 <0>        -0.1220
     22 C19         4.4743    3.0378   -6.2234 C.2       1 <0>         0.4880
     23 O1          5.2120    3.8167   -6.7930 O.co2     1 <0>        -0.6311
     24 H2          1.2162   -2.5393   -1.0639 H         1 <0>         0.0741
     25 H3          2.1150   -2.5512    0.4724 H         1 <0>         0.0661
     26 H4          0.3352   -2.5652    0.4826 H         1 <0>         0.0667
     27 H5         -0.9264   -0.5558    0.0077 H         1 <0>         0.1276
     28 H6         -0.9582    1.9089    0.0170 H         1 <0>         0.1279
     29 H7          3.3396   -0.5209   -0.0233 H         1 <0>         0.1307
     30 H8          4.3756    1.7273    0.4802 H         1 <0>         0.4071
     31 H9         -0.8308    4.1486    0.3490 H         1 <0>         0.1620
     32 H10         0.1965    6.5556    0.1594 H         1 <0>         0.1405
     33 H11         2.8264    6.2804   -0.3369 H         1 <0>         0.1405
     34 H12         2.5894    1.6627   -2.2320 H         1 <0>         0.1107
     35 H13         2.9146    1.4790   -4.6630 H         1 <0>         0.1278
     36 H14         5.5792    4.8384   -4.5399 H         1 <0>         0.1278
     37 H15         5.2318    5.0103   -2.1112 H         1 <0>         0.1172
     38 O2          3.8429    2.0745   -6.9220 O.co2     1 <0>        -0.7542
@<TRIPOS>BOND
     1    1    2 1
     2    1   24 1
     3    1   25 1
     4    1   26 1
     5    2    7 ar
     6    2    3 ar
     7    3    4 ar
     8    3   27 1
     9    4    5 ar
    10    4   28 1
    11    5   12 1
    12    5    6 ar
    13    6    7 ar
    14    6    8 1
    15    7   29 1
    16    8    9 1
    17    8   30 1
    18    9   10 1
    19    9   11 1
    20    9   16 1
    21   11   15 2
    22   11   12 1
    23   12   13 1
    24   13   14 2
    25   13   31 1
    26   14   15 1
    27   14   32 1
    28   15   33 1
    29   16   21 ar
    30   16   17 ar
    31   17   18 ar
    32   17   34 1
    33   18   19 ar
    34   18   35 1
    35   19   20 ar
    36   19   22 1
    37   20   21 ar
    38   20   36 1
    39   21   37 1
    40   22   23 2
    41   22   38 1
@<TRIPOS>MOLECULE
ZINC37087480
   41    42     0     0     0
SMALL
USER_CHARGES

@<TRIPOS>ATOM
      1 C1         -0.0184    1.5028    0.0103 C.3       1 <0>        -0.0948
      2 C2          0.0021   -0.0041    0.0020 C.ar      1 <0>        -0.1736
      3 C3          0.0057   -0.6862   -1.2007 C.ar      1 <0>        -0.0959
      4 C4          0.0239   -2.0655   -1.2171 C.ar      1 <0>        -0.1353
      5 C5          0.0392   -2.7782   -0.0152 C.ar      1 <0>        -0.0939
      6 C6          0.0361   -2.0892    1.1990 C.ar      1 <0>        -0.1533
      7 C7          0.0230   -0.7029    1.2034 C.ar      1 <0>         0.1938
      8 N1          0.0255   -0.0082    2.4156 N.pl3     1 <0>        -0.7469
      9 C8          0.0475   -0.7446    3.6819 C.3       1 <0>         0.1640
     10 C9          0.0456    0.2310    4.8305 C.ar      1 <0>        -0.1079
     11 C10         1.2417    0.6987    5.3420 C.ar      1 <0>        -0.0563
     12 C11         1.2400    1.5936    6.3956 C.ar      1 <0>        -0.1327
     13 C12         0.0422    2.0211    6.9374 C.ar      1 <0>        -0.0770
     14 C13        -1.1538    1.5541    6.4253 C.ar      1 <0>        -0.1328
     15 C14        -1.1522    0.6625    5.3689 C.ar      1 <0>        -0.0559
     16 C15        -2.4562    0.1574    4.8072 C.3       1 <0>        -0.1232
     17 C16         0.0404    2.9959    8.0866 C.3       1 <0>        -0.1133
     18 C17         2.5474    0.2326    4.7514 C.3       1 <0>        -0.1210
     19 C18         0.0582   -4.2536   -0.0294 C.2       1 <0>         0.5188
     20 O1          0.0606   -4.8549   -1.0942 O.co2     1 <0>        -0.6880
     21 O2          0.0717   -4.8751    1.0238 O.co2     1 <0>        -0.6893
     22 H1          1.0042    1.8801    0.0026 H         1 <0>         0.0562
     23 H2         -0.5455    1.8639   -0.8728 H         1 <0>         0.0590
     24 H3         -0.5286    1.8543    0.9071 H         1 <0>         0.0510
     25 H4         -0.0062   -0.1372   -2.1307 H         1 <0>         0.1108
     26 H5          0.0259   -2.5944   -2.1588 H         1 <0>         0.1211
     27 H6          0.0475   -2.6341    2.1314 H         1 <0>         0.1235
     28 H7          0.0126    0.9617    2.4188 H         1 <0>         0.3927
     29 H8         -0.8335   -1.3832    3.7462 H         1 <0>         0.0670
     30 H9          0.9462   -1.3596    3.7290 H         1 <0>         0.0692
     31 H10         2.1744    1.9584    6.7957 H         1 <0>         0.1197
     32 H11        -2.0896    1.8879    6.8487 H         1 <0>         0.1197
     33 H12        -2.7538   -0.7475    5.3369 H         1 <0>         0.0731
     34 H13        -3.2249    0.9203    4.9309 H         1 <0>         0.0644
     35 H14        -2.3331   -0.0658    3.7474 H         1 <0>         0.0765
     36 H15         0.0190    4.0145    7.6991 H         1 <0>         0.0687
     37 H16        -0.8394    2.8247    8.7069 H         1 <0>         0.0649
     38 H17         0.9402    2.8537    8.6851 H         1 <0>         0.0649
     39 H18         2.8407    0.9030    3.9436 H         1 <0>         0.0721
     40 H19         3.3169    0.2354    5.5234 H         1 <0>         0.0642
     41 H20         2.4290   -0.7778    4.3600 H         1 <0>         0.0756
@<TRIPOS>BOND
     1    1    2 1
     2    1   22 1
     3    1   23 1
     4    1   24 1
     5    2    7 ar
     6    2    3 ar
     7    3    4 ar
     8    3   25 1
     9    4    5 ar
    10    4   26 1
    11    5    6 ar
    12    5   19 1
    13    6    7 ar
    14    6   27 1
    15    7    8 1
    16    8    9 1
    17    8   28 1
    18    9   10 1
    19    9   29 1
    20    9   30 1
    21   10   15 ar
    22   10   11 ar
    23   11   12 ar
    24   11   18 1
    25   12   13 ar
    26   12   31 1
    27   13   14 ar
    28   13   17 1
    29   14   15 ar
    30   14   32 1
    31   15   16 1
    32   16   33 1
    33   16   34 1
    34   16   35 1
    35   17   36 1
    36   17   37 1
    37   17   38 1
    38   18   39 1
    39   18   40 1
    40   18   41 1
    41   19   20 2
    42   19   21 1
@<TRIPOS>MOLECULE
ZINC37954552
   41    42     0     0     0
SMALL
USER_CHARGES

@<TRIPOS>ATOM
      1 C1         -0.0184    1.5028    0.0103 C.3       1 <0>        -0.1001
      2 C2          0.0021   -0.0041    0.0020 C.ar      1 <0>        -0.1786
      3 C3          0.0057   -0.6889   -1.1975 C.ar      1 <0>        -0.0751
      4 C4          0.0240   -2.0714   -1.2060 C.ar      1 <0>        -0.1968
      5 C5          0.0391   -2.7733   -0.0143 C.ar      1 <0>        -0.0754
      6 C6          0.0360   -2.0949    1.1884 C.ar      1 <0>        -0.1951
      7 C7          0.0230   -0.7057    1.2005 C.ar      1 <0>         0.2412
      8 N1          0.0251   -0.0163    2.4152 N.pl3     1 <0>        -0.7092
      9 C8          0.0472   -0.7580    3.6784 C.3       1 <0>         0.1132
     10 H1          0.6479   -1.6598    3.5598 H         1 <0>         0.0810
     11 C9          0.6462    0.1062    4.7580 C.ar      1 <0>        -0.0564
     12 C10         0.3311    1.4507    4.8214 C.ar      1 <0>        -0.1071
     13 C11         0.8806    2.2434    5.8116 C.ar      1 <0>        -0.1174
     14 C12         1.7447    1.6915    6.7387 C.ar      1 <0>        -0.0933
     15 C13         2.0591    0.3468    6.6759 C.ar      1 <0>        -0.1143
     16 C14         1.5063   -0.4468    5.6882 C.ar      1 <0>        -0.1068
     17 C15         2.3445    2.5559    7.8177 C.3       1 <0>        -0.0527
     18 C16         1.9352    2.0165    9.1897 C.3       1 <0>        -0.1439
     19 C17         3.8696    2.5376    7.6968 C.3       1 <0>        -0.1420
     20 C18        -1.3596   -1.1384    4.0622 C.2       1 <0>         0.4940
     21 O1         -1.5626   -2.1545    4.7046 O.co2     1 <0>        -0.6919
     22 O2         -2.2947   -0.4299    3.7303 O.co2     1 <0>        -0.6772
     23 H2          1.0042    1.8801    0.0026 H         1 <0>         0.0581
     24 H3         -0.5455    1.8639   -0.8728 H         1 <0>         0.0607
     25 H4         -0.5286    1.8543    0.9071 H         1 <0>         0.0582
     26 H5         -0.0060   -0.1439   -2.1298 H         1 <0>         0.1119
     27 H6          0.0261   -2.6044   -2.1453 H         1 <0>         0.1093
     28 H7          0.0529   -3.8531   -0.0245 H         1 <0>         0.1133
     29 H8          0.0474   -2.6436    2.1185 H         1 <0>         0.1220
     30 H9          0.0120    0.9536    2.4225 H         1 <0>         0.3931
     31 H10        -0.3440    1.8818    4.0970 H         1 <0>         0.1198
     32 H11         0.6350    3.2939    5.8607 H         1 <0>         0.1164
     33 H12         2.7345   -0.0843    7.4000 H         1 <0>         0.1169
     34 H13         1.7489   -1.4981    5.6413 H         1 <0>         0.1213
     35 H14         1.9834    3.5783    7.7068 H         1 <0>         0.0733
     36 H15         2.2962    0.9940    9.3006 H         1 <0>         0.0564
     37 H16         2.3690    2.6417    9.9701 H         1 <0>         0.0533
     38 H17         0.8486    2.0295    9.2758 H         1 <0>         0.0563
     39 H18         4.3034    3.1628    8.4772 H         1 <0>         0.0532
     40 H19         4.2307    1.5152    7.8078 H         1 <0>         0.0560
     41 H20         4.1613    2.9219    6.7194 H         1 <0>         0.0544
@<TRIPOS>BOND
     1    1    2 1
     2    1   23 1
     3    1   24 1
     4    1   25 1
     5    2    7 ar
     6    2    3 ar
     7    3    4 ar
     8    3   26 1
     9    4    5 ar
    10    4   27 1
    11    5    6 ar
    12    5   28 1
    13    6    7 ar
    14    6   29 1
    15    7    8 1
    16    8    9 1
    17    8   30 1
    18    9   10 1
    19    9   11 1
    20    9   20 1
    21   11   16 ar
    22   11   12 ar
    23   12   13 ar
    24   12   31 1
    25   13   14 ar
    26   13   32 1
    27   14   15 ar
    28   14   17 1
    29   15   16 ar
    30   15   33 1
    31   16   34 1
    32   17   18 1
    33   17   19 1
    34   17   35 1
    35   18   36 1
    36   18   37 1
    37   18   38 1
    38   19   39 1
    39   19   40 1
    40   19   41 1
    41   20   21 2
    42   20   22 1
@<TRIPOS>MOLECULE
ZINC50047638
   36    38     0     0     0
SMALL
USER_CHARGES

@<TRIPOS>ATOM
      1 C1         -0.1119    1.1533   -0.2066 C.ar      1 <0>        -0.1286
      2 C2          1.0389    1.9196   -0.2041 C.ar      1 <0>        -0.1252
      3 C3          2.2717    1.3037   -0.1465 C.ar      1 <0>        -0.1068
      4 C4          2.3672   -0.0812   -0.0935 C.ar      1 <0>        -0.0339
      5 C5          1.2216   -0.8444   -0.1011 C.ar      1 <0>        -0.0718
      6 C6         -0.0192   -0.2220   -0.1545 C.ar      1 <0>        -0.1269
      7 C7          1.2501   -2.3499   -0.0619 C.3       1 <0>        -0.0752
      8 C8          2.6101   -2.8491    0.4218 C.3       1 <0>        -0.1368
      9 C9          3.7008   -2.1645   -0.4102 C.3       1 <0>        -0.1014
     10 C10         3.7446   -0.6871   -0.0252 C.3       1 <0>        -0.0856
     11 C11         4.2766   -0.5550    1.3786 C.2       1 <0>         0.5302
     12 O1          3.6787   -1.0699    2.3081 O.co2     1 <0>        -0.6600
     13 O2          5.3049    0.0668    1.5848 O.co2     1 <0>        -0.6656
     14 S1          4.8439    0.1961   -1.1661 S.3       1 <0>        -0.0263
     15 C12         4.1048   -0.0499   -2.7465 C.ar      1 <0>        -0.1193
     16 C13         2.8766   -0.6882   -2.8486 C.ar      1 <0>        -0.1327
     17 C14         2.2991   -0.8799   -4.0895 C.ar      1 <0>        -0.1124
     18 C15         2.9421   -0.4376   -5.2309 C.ar      1 <0>        -0.1266
     19 C16         4.1661    0.1993   -5.1371 C.ar      1 <0>        -0.1322
     20 C17         4.7490    0.4010   -3.8972 C.ar      1 <0>         0.1095
     21 O3          5.9501    1.0322   -3.8031 O.3       1 <0>        -0.4891
     22 H1         -1.0803    1.6300   -0.2447 H         1 <0>         0.1154
     23 H2          0.9728    2.9967   -0.2474 H         1 <0>         0.1171
     24 H3          3.1702    1.9030   -0.1431 H         1 <0>         0.1292
     25 H4         -0.9186   -0.8198   -0.1556 H         1 <0>         0.1159
     26 H5          0.4745   -2.7065    0.6159 H         1 <0>         0.0719
     27 H6          1.0593   -2.7391   -1.0620 H         1 <0>         0.0639
     28 H7          2.7399   -2.5984    1.4746 H         1 <0>         0.1160
     29 H8          2.6723   -3.9294    0.2908 H         1 <0>         0.0570
     30 H9          4.6657   -2.6268   -0.2021 H         1 <0>         0.0694
     31 H10         3.4683   -2.2607   -1.4708 H         1 <0>         0.0625
     32 H11         2.3725   -1.0353   -1.9588 H         1 <0>         0.1488
     33 H12         1.3433   -1.3767   -4.1679 H         1 <0>         0.1192
     34 H13         2.4873   -0.5902   -6.1985 H         1 <0>         0.1205
     35 H14         4.6656    0.5431   -6.0308 H         1 <0>         0.1252
     36 H15         6.7114    0.4377   -3.8485 H         1 <0>         0.3849
@<TRIPOS>BOND
     1    1    6 ar
     2    1    2 ar
     3    1   22 1
     4    2    3 ar
     5    2   23 1
     6    3    4 ar
     7    3   24 1
     8    4   10 1
     9    4    5 ar
    10    5    6 ar
    11    5    7 1
    12    6   25 1
    13    7    8 1
    14    7   26 1
    15    7   27 1
    16    8    9 1
    17    8   28 1
    18    8   29 1
    19    9   10 1
    20    9   30 1
    21    9   31 1
    22   10   11 1
    23   10   14 1
    24   11   12 2
    25   11   13 1
    26   14   15 1
    27   15   20 ar
    28   15   16 ar
    29   16   17 ar
    30   16   32 1
    31   17   18 ar
    32   17   33 1
    33   18   19 ar
    34   18   34 1
    35   19   20 ar
    36   19   35 1
    37   20   21 1
    38   21   36 1
@<TRIPOS>MOLECULE
ZINC59267075
   38    41     0     0     0
SMALL
USER_CHARGES

@<TRIPOS>ATOM
      1 C1         -0.0166    1.3761    0.0096 C.ar      1 <0>        -0.1821
      2 C2          1.1700    2.0866    0.0021 C.ar      1 <0>        -0.0772
      3 C3          2.3732    1.4121   -0.0195 C.ar      1 <0>        -0.1977
      4 C4          2.3939    0.0198   -0.0312 C.ar      1 <0>         0.2301
      5 C5          1.2076   -0.6912   -0.0121 C.ar      1 <0>        -0.1414
      6 C6          0.0021   -0.0041    0.0020 C.ar      1 <0>        -0.0699
      7 C7          1.1722   -2.1934    0.0122 C.3       1 <0>        -0.0093
      8 H1          0.7971   -2.5785   -0.9360 H         1 <0>         0.0854
      9 C8          0.2622   -2.6186    1.1538 C.2       1 <0>        -0.1503
     10 C9          0.9666   -2.9971    2.1883 C.2       1 <0>        -0.1676
     11 C10         2.4498   -2.8963    1.8992 C.3       1 <0>        -0.0926
     12 C11         2.5242   -2.8202    0.3418 C.3       1 <0>        -0.0891
     13 H2          2.5532   -3.8323   -0.0618 H         1 <0>         0.0913
     14 C12         3.7311   -2.0804   -0.1527 C.3       1 <0>         0.2182
     15 H3          4.5899   -2.3809    0.4475 H         1 <0>         0.0823
     16 N1          3.6188   -0.6372   -0.0684 N.pl3     1 <0>        -0.7294
     17 C13         3.9857   -2.4844   -1.5821 C.ar      1 <0>        -0.1255
     18 C14         3.2474   -1.9100   -2.6019 C.ar      1 <0>        -0.1144
     19 C15         3.4746   -2.2752   -3.9123 C.ar      1 <0>        -0.0875
     20 C16         4.4533   -3.2272   -4.2090 C.ar      1 <0>        -0.1285
     21 C17         5.1951   -3.8026   -3.1742 C.ar      1 <0>        -0.0872
     22 C18         4.9605   -3.4238   -1.8689 C.ar      1 <0>        -0.1304
     23 C19         4.7018   -3.6234   -5.6082 C.2       1 <0>         0.5180
     24 O1          4.0506   -3.1183   -6.5117 O.co2     1 <0>        -0.6872
     25 O2          5.5591   -4.4570   -5.8646 O.co2     1 <0>        -0.6881
     26 H4         -0.9597    1.9021    0.0259 H         1 <0>         0.1139
     27 H5          1.1546    3.1665    0.0127 H         1 <0>         0.1168
     28 H6          3.3009    1.9649   -0.0276 H         1 <0>         0.1175
     29 H7         -0.9280   -0.5530    0.0071 H         1 <0>         0.1160
     30 H8         -0.8170   -2.6093    1.1154 H         1 <0>         0.1246
     31 H9          0.5468   -3.3362    3.1238 H         1 <0>         0.1227
     32 H10         2.8667   -1.9940    2.3467 H         1 <0>         0.0750
     33 H11         2.9718   -3.7814    2.2628 H         1 <0>         0.0709
     34 H12         4.4310   -0.1068   -0.0609 H         1 <0>         0.3997
     35 H13         2.4913   -1.1742   -2.3710 H         1 <0>         0.1115
     36 H14         2.8972   -1.8266   -4.7071 H         1 <0>         0.1235
     37 H15         5.9531   -4.5391   -3.3962 H         1 <0>         0.1253
     38 H16         5.5361   -3.8645   -1.0683 H         1 <0>         0.1126
@<TRIPOS>BOND
     1    1    6 ar
     2    1    2 ar
     3    1   26 1
     4    2    3 ar
     5    2   27 1
     6    3    4 ar
     7    3   28 1
     8    4   16 1
     9    4    5 ar
    10    5    6 ar
    11    5    7 1
    12    6   29 1
    13    7    8 1
    14    7   12 1
    15    7    9 1
    16    9   10 2
    17    9   30 1
    18   10   11 1
    19   10   31 1
    20   11   12 1
    21   11   32 1
    22   11   33 1
    23   12   13 1
    24   12   14 1
    25   14   15 1
    26   14   16 1
    27   14   17 1
    28   16   34 1
    29   17   22 ar
    30   17   18 ar
    31   18   19 ar
    32   18   35 1
    33   19   20 ar
    34   19   36 1
    35   20   21 ar
    36   20   23 1
    37   21   22 ar
    38   21   37 1
    39   22   38 1
    40   23   24 2
    41   23   25 1
@<TRIPOS>MOLECULE
ZINC01287041
   48    51     0     0     0
SMALL
USER_CHARGES
N-(3-benzyl-2,6-dioxo-pyrimidin-4-yl)-2-(2-quinolylsulfanyl)acetamide
@<TRIPOS>ATOM
      1 C1          0.7280   11.6970   -4.1213 C.ar      1 <0>        -0.1061
      2 C2          0.6997   12.8872   -3.4187 C.ar      1 <0>        -0.1194
      3 C3          0.2882   12.9012   -2.0991 C.ar      1 <0>        -0.0887
      4 C4         -0.0950   11.7250   -1.4821 C.ar      1 <0>        -0.1230
      5 C5         -0.0617   10.5340   -2.1831 C.ar      1 <0>        -0.1057
      6 C6          0.3448   10.5208   -3.5043 C.ar      1 <0>        -0.1211
      7 C7         -0.5431   11.7402   -0.0433 C.3       1 <0>         0.1520
      8 N1         -1.9717   12.0587    0.0198 N.am      1 <0>        -0.5296
      9 C8         -2.8959   11.0437    0.0603 C.2       1 <0>         0.4246
     10 C9         -4.2249   11.3484    0.1138 C.2       1 <0>        -0.2685
     11 C10        -4.6156   12.6991    0.1367 C.2       1 <0>         0.5574
     12 O1         -5.7968   12.9952    0.1889 O.2       1 <0>        -0.5076
     13 N2         -3.6756   13.6639    0.0951 N.am      1 <0>        -0.6604
     14 H1         -3.9506   14.6253    0.1072 H         1 <0>         0.4412
     15 C11        -2.3700   13.3439    0.0374 C.2       1 <0>         0.7082
     16 O2         -1.5375   14.2293    0.0001 O.2       1 <0>        -0.5298
     17 N3         -2.4847    9.7282    0.0412 N.am      1 <0>        -0.6833
     18 C12        -2.3303    9.0536    1.1978 C.2       1 <0>         0.5398
     19 O3         -2.4695    9.6268    2.2572 O.2       1 <0>        -0.4856
     20 C13        -1.9846    7.5870    1.1743 C.3       1 <0>        -0.1449
     21 S1         -1.8464    6.9724    2.8711 S.3       1 <0>         0.0329
     22 C14        -1.4477    5.2857    2.5541 C.ar      1 <0>         0.1329
     23 C15        -1.2470    4.4141    3.6351 C.ar      1 <0>        -0.1530
     24 C16        -0.9375    3.1080    3.4051 C.ar      1 <0>        -0.0370
     25 C17        -0.8300    2.6717    2.0682 C.ar      1 <0>        -0.1086
     26 C18        -0.5157    1.3392    1.7602 C.ar      1 <0>        -0.0898
     27 C19        -0.4206    0.9532    0.4573 C.ar      1 <0>        -0.1189
     28 C20        -0.6257    1.8657   -0.5748 C.ar      1 <0>        -0.0928
     29 C21        -0.9373    3.1646   -0.3114 C.ar      1 <0>        -0.0995
     30 C22        -1.0446    3.5999    1.0206 C.ar      1 <0>         0.1431
     31 N4         -1.3454    4.8718    1.3070 N.ar      1 <0>        -0.4878
     32 H2          1.0498   11.6860   -5.1522 H         1 <0>         0.1255
     33 H3          0.9994   13.8060   -3.9007 H         1 <0>         0.1265
     34 H4          0.2664   13.8309   -1.5501 H         1 <0>         0.1348
     35 H5         -0.3569    9.6145   -1.6997 H         1 <0>         0.1167
     36 H6          0.3673    9.5910   -4.0531 H         1 <0>         0.1265
     37 H7          0.0218   12.4939    0.5052 H         1 <0>         0.1141
     38 H8         -0.3693   10.7605    0.4017 H         1 <0>         0.0996
     39 H9         -4.9661   10.5634    0.1421 H         1 <0>         0.1755
     40 H10        -2.3066    9.2880   -0.8045 H         1 <0>         0.4253
     41 H11        -1.0350    7.4458    0.6582 H         1 <0>         0.1314
     42 H12        -2.7675    7.0375    0.6515 H         1 <0>         0.1345
     43 H13        -1.3372    4.7784    4.6478 H         1 <0>         0.1440
     44 H14        -0.7791    2.4237    4.2254 H         1 <0>         0.1465
     45 H15        -0.3505    0.6235    2.5519 H         1 <0>         0.1322
     46 H16        -0.1788   -0.0726    0.2215 H         1 <0>         0.1297
     47 H17        -0.5401    1.5369   -1.6000 H         1 <0>         0.1317
     48 H18        -1.0977    3.8588   -1.1230 H         1 <0>         0.1347
@<TRIPOS>BOND
     1    1    6 ar
     2    1    2 ar
     3    1   32 1
     4    2    3 ar
     5    2   33 1
     6    3    4 ar
     7    3   34 1
     8    4    5 ar
     9    4    7 1
    10    5    6 ar
    11    5   35 1
    12    6   36 1
    13    7    8 1
    14    7   37 1
    15    7   38 1
    16    8   15 am
    17    8    9 1
    18    9   10 2
    19    9   17 1
    20   10   11 1
    21   10   39 1
    22   11   12 2
    23   11   13 am
    24   13   14 1
    25   13   15 am
    26   15   16 2
    27   17   18 am
    28   17   40 1
    29   18   19 2
    30   18   20 1
    31   20   21 1
    32   20   41 1
    33   20   42 1
    34   21   22 1
    35   22   31 ar
    36   22   23 ar
    37   23   24 ar
    38   23   43 1
    39   24   25 ar
    40   24   44 1
    41   25   30 ar
    42   25   26 ar
    43   26   27 ar
    44   26   45 1
    45   27   28 ar
    46   27   46 1
    47   28   29 ar
    48   28   47 1
    49   29   30 ar
    50   29   48 1
    51   30   31 ar
@<TRIPOS>MOLECULE
ZINC15764242
   52    55     0     0     0
SMALL
USER_CHARGES
(2R)-1-(4-fluorophenyl)sulfonyl-N'-(4,5,6,7-tetrahydrobenzothiophene-2-carbonyl)pyrrolidine-2-carbohydrazide
@<TRIPOS>ATOM
      1 C1          0.4466   -0.2005  -14.2998 C.ar      1 <0>        -0.1739
      2 C2          1.0661    0.4113  -13.2266 C.ar      1 <0>         0.0099
      3 C3          0.5421    0.2735  -11.9548 C.ar      1 <0>        -0.6988
      4 C4         -0.5991   -0.4806  -11.7541 C.ar      1 <0>         0.0088
      5 C5         -1.2233   -1.0889  -12.8265 C.ar      1 <0>        -0.1741
      6 C6         -0.6994   -0.9517  -14.1008 C.ar      1 <0>         0.1578
      7 F1         -1.3062   -1.5498  -15.1493 F         1 <0>        -0.1274
      8 S1          1.3334    1.0536  -10.5873 S.o2      1 <0>         2.7090
      9 O1          2.6915    1.2449  -10.9591 O.2       1 <0>        -0.9446
     10 O2          0.9565    0.3224   -9.4287 O.2       1 <0>        -0.9232
     11 N1          0.6682    2.5622  -10.4321 N.pl3     1 <0>        -0.9903
     12 C7          1.1581    3.7888  -11.0870 C.3       1 <0>         0.1113
     13 C8          0.6530    4.9462  -10.1898 C.3       1 <0>        -0.1289
     14 C9         -0.7448    4.4189   -9.7567 C.3       1 <0>        -0.1237
     15 C10        -0.5082    2.9003   -9.6177 C.3       1 <0>         0.1465
     16 H1         -1.3793    2.3546   -9.9804 H         1 <0>         0.1121
     17 C11        -0.2498    2.5518   -8.1745 C.2       1 <0>         0.4955
     18 O3          0.8109    2.0616   -7.8496 O.2       1 <0>        -0.4990
     19 N2         -1.1974    2.7848   -7.2449 N.am      1 <0>        -0.5181
     20 N3         -0.9571    2.4608   -5.9032 N.am      1 <0>        -0.5164
     21 C12        -1.9047    2.6939   -4.9736 C.2       1 <0>         0.6125
     22 O4         -2.9691    3.1857   -5.2996 O.2       1 <0>        -0.5268
     23 C13        -1.6534    2.3549   -3.5698 C.2       1 <0>        -0.2485
     24 C14        -2.4811    2.5107   -2.4734 C.2       1 <0>        -0.0480
     25 C15        -2.0086    2.1095   -1.2344 C.2       1 <0>        -0.1434
     26 C16        -0.7472    1.5870   -1.1971 C.2       1 <0>        -0.1474
     27 S2         -0.1981    1.6344   -2.8289 S.3       1 <0>         0.1525
     28 C17        -0.0127    1.0858    0.0080 C.3       1 <0>        -0.0475
     29 C18        -0.7420    1.5863    1.2632 C.3       1 <0>        -0.1149
     30 C19        -2.2402    1.3062    1.1051 C.3       1 <0>        -0.1225
     31 C20        -2.8346    2.2321    0.0434 C.3       1 <0>        -0.0578
     32 H2          0.8559   -0.0925  -15.2934 H         1 <0>         0.1485
     33 H3          1.9598    0.9975  -13.3816 H         1 <0>         0.1512
     34 H4         -1.0052   -0.5909  -10.7595 H         1 <0>         0.1496
     35 H5         -2.1172   -1.6746  -12.6702 H         1 <0>         0.1480
     36 H6          2.2474    3.7880  -11.1277 H         1 <0>         0.0915
     37 H7          0.7418    3.8751  -12.0907 H         1 <0>         0.0768
     38 H8          1.3038    5.0838   -9.3264 H         1 <0>         0.0811
     39 H9          0.5623    5.8711  -10.7594 H         1 <0>         0.0939
     40 H10        -1.4906    4.6243  -10.5246 H         1 <0>         0.0980
     41 H11        -1.0436    4.8516   -8.8019 H         1 <0>         0.0900
     42 H12        -2.0457    3.1768   -7.5048 H         1 <0>         0.4333
     43 H13        -0.1088    2.0688   -5.6433 H         1 <0>         0.4331
     44 H14        -3.4693    2.9334   -2.5800 H         1 <0>         0.1469
     45 H15         0.0021   -0.0041    0.0020 H         1 <0>         0.0901
     46 H16         1.0085    1.4668    0.0003 H         1 <0>         0.0869
     47 H17        -0.3619    1.0621    2.1401 H         1 <0>         0.0764
     48 H18        -0.5802    2.6582    1.3769 H         1 <0>         0.0699
     49 H19        -2.7426    1.4777    2.0572 H         1 <0>         0.0719
     50 H20        -2.3834    0.2690    0.8021 H         1 <0>         0.0667
     51 H21        -2.8062    3.2619    0.3994 H         1 <0>         0.0779
     52 H22        -3.8661    1.9440   -0.1594 H         1 <0>         0.0777
@<TRIPOS>BOND
     1    1    6 ar
     2    1    2 ar
     3    1   32 1
     4    2    3 ar
     5    2   33 1
     6    3    4 ar
     7    3    8 1
     8    4    5 ar
     9    4   34 1
    10    5    6 ar
    11    5   35 1
    12    6    7 1
    13    8    9 2
    14    8   10 2
    15    8   11 1
    16   11   15 1
    17   11   12 1
    18   12   13 1
    19   12   36 1
    20   12   37 1
    21   13   14 1
    22   13   38 1
    23   13   39 1
    24   14   15 1
    25   14   40 1
    26   14   41 1
    27   15   16 1
    28   15   17 1
    29   17   18 2
    30   17   19 am
    31   19   20 1
    32   19   42 1
    33   20   21 am
    34   20   43 1
    35   21   22 2
    36   21   23 1
    37   23   27 1
    38   23   24 2
    39   24   25 1
    40   24   44 1
    41   25   31 1
    42   25   26 2
    43   26   27 1
    44   26   28 1
    45   28   29 1
    46   28   45 1
    47   28   46 1
    48   29   30 1
    49   29   47 1
    50   29   48 1
    51   30   31 1
    52   30   49 1
    53   30   50 1
    54   31   51 1
    55   31   52 1
@<TRIPOS>MOLECULE
ZINC28640904
   55    57     0     0     0
SMALL
USER_CHARGES
(8R,8aS)-6-amino-8-(2-chloro-5-methoxy-4-propoxy-phenyl)-2-methyl-1,3,8,8a-tetrahydroisoquinoline-5,7,7-tricarbonitrile
@<TRIPOS>ATOM
      1 C1         -8.6946    0.2993    0.9649 C.3       1 <0>        -0.1521
      2 C2         -7.7271   -0.5016    0.0911 C.3       1 <0>        -0.1239
      3 C3         -6.4080   -0.6999    0.8405 C.3       1 <0>         0.0532
      4 O1         -5.5043   -1.4479    0.0244 O.3       1 <0>        -0.2984
      5 C4         -4.2768   -1.7135    0.5460 C.ar      1 <0>         0.1254
      6 C5         -3.9497   -1.2639    1.8152 C.ar      1 <0>        -0.1631
      7 C6         -2.7003   -1.5345    2.3439 C.ar      1 <0>        -0.0014
      8 C7         -1.7756   -2.2534    1.6075 C.ar      1 <0>        -0.0668
      9 C8         -2.0947   -2.6995    0.3385 C.ar      1 <0>        -0.1652
     10 C9         -3.3465   -2.4368   -0.1940 C.ar      1 <0>         0.1107
     11 O2         -3.6635   -2.8800   -1.4403 O.3       1 <0>        -0.2977
     12 C10        -2.6594   -3.6161   -2.1419 C.3       1 <0>         0.0232
     13 C11        -0.4157   -2.5455    2.1874 C.3       1 <0>        -0.0220
     14 H1         -0.4718   -2.4283    3.2797 H         1 <0>         0.1237
     15 C12         0.6100   -1.5722    1.6032 C.3       1 <0>        -0.0334
     16 H2          1.6287   -1.8189    1.9370 H         1 <0>         0.0954
     17 C13         0.3912   -0.1595    2.0969 C.3       1 <0>         0.0509
     18 N1         -0.3320    0.6576    1.1186 N.3       1 <0>        -0.5260
     19 C14         0.4275    0.7330   -0.1420 C.3       1 <0>         0.0800
     20 C15         0.5215   -0.6635   -0.7047 C.2       1 <0>        -0.1278
     21 C16         0.5787   -1.7026    0.1073 C.2       1 <0>        -0.0437
     22 C17         0.5593   -3.0776   -0.4520 C.2       1 <0>        -0.1505
     23 C18         0.2746   -4.1228    0.3659 C.2       1 <0>         0.2542
     24 C19        -0.0034   -3.9740    1.8313 C.3       1 <0>         0.2096
     25 C20        -1.0875   -4.8949    2.2100 C.1       1 <0>         0.1911
     26 N2         -1.9242   -5.6056    2.5022 N.1       1 <0>        -0.3439
     27 C21         1.2097   -4.3245    2.5878 C.1       1 <0>         0.1982
     28 N3          2.1459   -4.5950    3.1716 N.1       1 <0>        -0.3484
     29 N4          0.2399   -5.3773   -0.1753 N.pl3     1 <0>        -0.8621
     30 C22         0.8375   -3.2988   -1.8392 C.1       1 <0>         0.2603
     31 N5          1.0581   -3.4742   -2.9397 N.1       1 <0>        -0.4206
     32 C23        -0.6028    1.9997    1.6511 C.3       1 <0>         0.0228
     33 Cl1        -2.2919   -0.9706    3.9342 Cl        1 <0>        -0.0622
     34 H3         -9.6430    0.4419    0.4261 H         1 <0>         0.0658
     35 H4         -8.2534    1.2800    1.1965 H         1 <0>         0.0586
     36 H5         -8.8829   -0.2482    1.9002 H         1 <0>         0.0582
     37 H6         -8.1683   -1.4823   -0.1405 H         1 <0>         0.0746
     38 H7         -7.5388    0.0458   -0.8442 H         1 <0>         0.0753
     39 H8         -5.9669    0.2808    1.0722 H         1 <0>         0.0653
     40 H9         -6.5963   -1.2474    1.7758 H         1 <0>         0.0634
     41 H10        -4.6701   -0.7025    2.3916 H         1 <0>         0.1452
     42 H11        -1.3696   -3.2567   -0.2361 H         1 <0>         0.1615
     43 H12        -3.0442   -3.9121   -3.1290 H         1 <0>         0.1041
     44 H13        -2.3950   -4.5156   -1.5666 H         1 <0>         0.0510
     45 H14        -1.7661   -2.9872   -2.2701 H         1 <0>         0.0554
     46 H15        -0.1964   -0.1829    3.0265 H         1 <0>         0.0927
     47 H16         1.3640    0.3163    2.2899 H         1 <0>         0.0449
     48 H17        -0.0968    1.3951   -0.8469 H         1 <0>         0.0892
     49 H18         1.4323    1.1331    0.0587 H         1 <0>         0.0515
     50 H19         0.5423   -0.8149   -1.7940 H         1 <0>         0.1176
     51 H20         0.0121   -6.2449    0.4614 H         1 <0>         0.4297
     52 H21         0.4398   -5.5194   -1.2476 H         1 <0>         0.4373
     53 H22        -1.1452    2.5903    0.8981 H         1 <0>         0.0711
     54 H23         0.3482    2.4973    1.8921 H         1 <0>         0.0267
     55 H24        -1.2141    1.9164    2.5618 H         1 <0>         0.0714
@<TRIPOS>BOND
     1    1    2 1
     2    1   34 1
     3    1   35 1
     4    1   36 1
     5    2    3 1
     6    2   37 1
     7    2   38 1
     8    3    4 1
     9    3   39 1
    10    3   40 1
    11    4    5 1
    12    5   10 ar
    13    5    6 ar
    14    6    7 ar
    15    6   41 1
    16    7    8 ar
    17    7   33 1
    18    8    9 ar
    19    8   13 1
    20    9   10 ar
    21    9   42 1
    22   10   11 1
    23   11   12 1
    24   12   43 1
    25   12   44 1
    26   12   45 1
    27   13   14 1
    28   13   24 1
    29   13   15 1
    30   15   16 1
    31   15   21 1
    32   15   17 1
    33   17   18 1
    34   17   46 1
    35   17   47 1
    36   18   19 1
    37   18   32 1
    38   19   20 1
    39   19   48 1
    40   19   49 1
    41   20   21 2
    42   20   50 1
    43   21   22 1
    44   22   23 2
    45   22   30 1
    46   23   24 1
    47   23   29 1
    48   24   25 1
    49   24   27 1
    50   25   26 3
    51   27   28 3
    52   29   51 1
    53   29   52 1
    54   30   31 3
    55   32   53 1
    56   32   54 1
    57   32   55 1
@<TRIPOS>MOLECULE
ZINC39962637
   45    47     0     0     0
SMALL
USER_CHARGES

@<TRIPOS>ATOM
      1 C1         -0.0187    1.5258    0.0104 C.3       1 <0>        -0.1513
      2 C2          0.0021   -0.0041    0.0020 C.3       1 <0>        -0.1173
      3 C3          0.7182   -0.4975   -1.2568 C.3       1 <0>        -0.0576
      4 C4          0.7386   -2.0043   -1.2651 C.2       1 <0>         0.0053
      5 C5         -0.1353   -2.7621   -1.8822 C.2       1 <0>        -0.1565
      6 C6         -1.2703   -2.4769   -2.8275 C.3       1 <0>         0.0983
      7 H1         -1.1552   -1.4857   -3.2662 H         1 <0>         0.1233
      8 C7         -1.1797   -3.5414   -3.9052 C.2       1 <0>        -0.2844
      9 C8         -0.3368   -4.5896   -3.7976 C.2       1 <0>         0.4496
     10 O1          0.5245   -4.8283   -2.7924 O.3       1 <0>        -0.2764
     11 C9          0.2656   -4.1965   -1.5360 C.3       1 <0>         0.1623
     12 H2         -0.5073   -4.7165   -0.9700 H         1 <0>         0.1592
     13 N1          1.4902   -3.9904   -0.7559 N.2       1 <0>        -0.1318
     14 N2          1.6680   -2.7711   -0.6394 N.2       1 <0>        -0.1066
     15 N3         -0.3612   -5.5064   -4.8182 N.pl3     1 <0>        -0.8321
     16 C10        -2.0105   -3.4308   -5.0663 C.1       1 <0>         0.2708
     17 N4         -2.6696   -3.3431   -5.9874 N.1       1 <0>        -0.4329
     18 C11        -2.5884   -2.5753   -2.1036 C.ar      1 <0>        -0.0446
     19 C12        -2.9559   -3.7628   -1.4979 C.ar      1 <0>        -0.1608
     20 C13        -4.1669   -3.8550   -0.8317 C.ar      1 <0>         0.1239
     21 C14        -5.0119   -2.7504   -0.7735 C.ar      1 <0>         0.1130
     22 C15        -4.6385   -1.5634   -1.3821 C.ar      1 <0>        -0.1413
     23 C16        -3.4253   -1.4761   -2.0415 C.ar      1 <0>        -0.0775
     24 Br1        -2.9138    0.1472   -2.8656 Br        1 <0>        -0.0326
     25 O2         -6.2019   -2.8366   -0.1209 O.3       1 <0>        -0.2988
     26 C17        -7.0178   -1.6636   -0.1018 C.3       1 <0>         0.0216
     27 O3         -4.5297   -5.0226   -0.2360 O.3       1 <0>        -0.2969
     28 C18        -3.6133   -6.1144   -0.3366 C.3       1 <0>         0.0219
     29 H3          1.0039    1.9031    0.0027 H         1 <0>         0.0578
     30 H4         -0.5459    1.8868   -0.8726 H         1 <0>         0.0568
     31 H5         -0.5289    1.8773    0.9072 H         1 <0>         0.0585
     32 H6          0.5293   -0.3651    0.8851 H         1 <0>         0.0687
     33 H7         -1.0205   -0.3814    0.0098 H         1 <0>         0.0637
     34 H8          0.1910   -0.1364   -2.1398 H         1 <0>         0.0881
     35 H9          1.7408   -0.1202   -1.2645 H         1 <0>         0.0921
     36 H10        -0.9644   -5.3820   -5.5676 H         1 <0>         0.4248
     37 H11         0.2248   -6.2789   -4.7903 H         1 <0>         0.4121
     38 H12        -2.2989   -4.6187   -1.5446 H         1 <0>         0.1347
     39 H13        -5.2924   -0.7050   -1.3383 H         1 <0>         0.1500
     40 H14        -6.4758   -0.8519    0.3834 H         1 <0>         0.0588
     41 H15        -7.2644   -1.3758   -1.1238 H         1 <0>         0.0584
     42 H16        -7.9355   -1.8682    0.4495 H         1 <0>         0.1062
     43 H17        -4.0237   -6.9821    0.1799 H         1 <0>         0.1083
     44 H18        -3.4531   -6.3587   -1.3867 H         1 <0>         0.0572
     45 H19        -2.6639   -5.8351    0.1203 H         1 <0>         0.0542
@<TRIPOS>BOND
     1    1    2 1
     2    1   29 1
     3    1   30 1
     4    1   31 1
     5    2    3 1
     6    2   32 1
     7    2   33 1
     8    3    4 1
     9    3   34 1
    10    3   35 1
    11    4   14 1
    12    4    5 2
    13    5   11 1
    14    5    6 1
    15    6    7 1
    16    6    8 1
    17    6   18 1
    18    8    9 2
    19    8   16 1
    20    9   10 1
    21    9   15 1
    22   10   11 1
    23   11   12 1
    24   11   13 1
    25   13   14 2
    26   15   36 1
    27   15   37 1
    28   16   17 3
    29   18   23 ar
    30   18   19 ar
    31   19   20 ar
    32   19   38 1
    33   20   21 ar
    34   20   27 1
    35   21   22 ar
    36   21   25 1
    37   22   23 ar
    38   22   39 1
    39   23   24 1
    40   25   26 1
    41   26   40 1
    42   26   41 1
    43   26   42 1
    44   27   28 1
    45   28   43 1
    46   28   44 1
    47   28   45 1
@<TRIPOS>MOLECULE
ZINC59037382
   51    54     0     0     0
SMALL
USER_CHARGES

@<TRIPOS>ATOM
      1 C1          0.0277    1.1350    0.1100 C.ar      1 <0>        -0.1672
      2 C2          1.0629    1.8176   -0.5002 C.ar      1 <0>        -0.0557
      3 C3          2.3190    1.2465   -0.5792 C.ar      1 <0>        -0.0978
      4 C4          2.5441   -0.0171   -0.0449 C.ar      1 <0>         0.2095
      5 C5          1.5067   -0.7040    0.5679 C.ar      1 <0>        -0.1627
      6 C6          0.2468   -0.1274    0.6457 C.ar      1 <0>         0.1939
      7 N1         -0.8024   -0.8176    1.2639 N.am      1 <0>        -0.5574
      8 C7         -0.6521   -2.0994    1.9628 C.3       1 <0>         0.0939
      9 C8         -1.9224   -2.2477    2.8293 C.3       1 <0>        -0.1316
     10 C9         -2.9375   -1.3780    2.0520 C.3       1 <0>        -0.1531
     11 C10        -2.0759   -0.3889    1.2985 C.2       1 <0>         0.5170
     12 O1         -2.4764    0.6399    0.7964 O.2       1 <0>        -0.5065
     13 N2          3.8164   -0.5958   -0.1258 N.am      1 <0>        -0.6795
     14 C11         3.9506   -1.9363   -0.0885 C.2       1 <0>         0.7068
     15 O2          2.9636   -2.6464   -0.0892 O.2       1 <0>        -0.5663
     16 N3          5.1789   -2.4898   -0.0505 N.am      1 <0>        -0.7379
     17 C12         5.3248   -3.9470   -0.0100 C.3       1 <0>         0.1439
     18 C13         6.8106   -4.3099    0.0281 C.3       1 <0>        -0.0830
     19 C14         6.9607   -5.8088    0.0698 C.ar      1 <0>        -0.0798
     20 C15         7.1045   -6.4548    1.2823 C.ar      1 <0>        -0.1102
     21 C16         7.2431   -7.8316    1.3210 C.ar      1 <0>         0.0752
     22 C17         7.2388   -8.5618    0.1448 C.ar      1 <0>        -0.1085
     23 C18         7.0955   -7.9180   -1.0699 C.ar      1 <0>        -0.1723
     24 C19         6.9486   -6.5402   -1.1096 C.ar      1 <0>         0.1323
     25 O3          6.7926   -5.8960   -2.2974 O.3       1 <0>        -0.3221
     26 C20         7.1434   -6.6233   -3.4782 C.3       1 <0>         0.2198
     27 O4          6.5520   -7.9261   -3.4056 O.3       1 <0>        -0.3801
     28 C21         7.0964   -8.7230   -2.3449 C.3       1 <0>         0.0995
     29 F1          7.3832   -8.4630    2.5072 F         1 <0>        -0.1353
     30 Cl1         3.6166    2.1075   -1.3465 Cl        1 <0>        -0.0679
     31 H1         -0.9517    1.5856    0.1742 H         1 <0>         0.1641
     32 H2          0.8899    2.7990   -0.9164 H         1 <0>         0.1428
     33 H3          1.6789   -1.6859    0.9833 H         1 <0>         0.1616
     34 H4         -0.5886   -2.9160    1.2437 H         1 <0>         0.0864
     35 H5          0.2358   -2.0825    2.5949 H         1 <0>         0.0879
     36 H6         -2.2486   -3.2870    2.8685 H         1 <0>         0.0986
     37 H7         -1.7586   -1.8537    3.8323 H         1 <0>         0.0870
     38 H8         -3.5146   -1.9916    1.3602 H         1 <0>         0.1120
     39 H9         -3.5991   -0.8549    2.7425 H         1 <0>         0.1095
     40 H10         4.6013   -0.0319   -0.2088 H         1 <0>         0.4110
     41 H11         5.9663   -1.9233   -0.0500 H         1 <0>         0.3996
     42 H12         4.8326   -4.3367    0.8811 H         1 <0>         0.0713
     43 H13         4.8669   -4.3828   -0.8979 H         1 <0>         0.0757
     44 H14         7.3028   -3.9201   -0.8630 H         1 <0>         0.0892
     45 H15         7.2685   -3.8740    0.9160 H         1 <0>         0.0847
     46 H16         7.1091   -5.8856    2.2001 H         1 <0>         0.1463
     47 H17         7.3479   -9.6358    0.1764 H         1 <0>         0.1436
     48 H18         6.7666   -6.0989   -4.3563 H         1 <0>         0.1458
     49 H19         8.2275   -6.7166   -3.5419 H         1 <0>         0.0663
     50 H20         8.1166   -9.0216   -2.5860 H         1 <0>         0.0807
     51 H21         6.4779   -9.6110   -2.2150 H         1 <0>         0.1190
@<TRIPOS>BOND
     1    1    6 ar
     2    1    2 ar
     3    1   31 1
     4    2    3 ar
     5    2   32 1
     6    3    4 ar
     7    3   30 1
     8    4    5 ar
     9    4   13 1
    10    5    6 ar
    11    5   33 1
    12    6    7 1
    13    7   11 am
    14    7    8 1
    15    8    9 1
    16    8   34 1
    17    8   35 1
    18    9   10 1
    19    9   36 1
    20    9   37 1
    21   10   11 1
    22   10   38 1
    23   10   39 1
    24   11   12 2
    25   13   14 am
    26   13   40 1
    27   14   15 2
    28   14   16 am
    29   16   17 1
    30   16   41 1
    31   17   18 1
    32   17   42 1
    33   17   43 1
    34   18   19 1
    35   18   44 1
    36   18   45 1
    37   19   24 ar
    38   19   20 ar
    39   20   21 ar
    40   20   46 1
    41   21   22 ar
    42   21   29 1
    43   22   23 ar
    44   22   47 1
    45   23   28 1
    46   23   24 ar
    47   24   25 1
    48   25   26 1
    49   26   27 1
    50   26   48 1
    51   26   49 1
    52   27   28 1
    53   28   50 1
    54   28   51 1
@<TRIPOS>MOLECULE
ZINC13088535
   45    46     0     0     0
SMALL
USER_CHARGES
(E)-3-[4-[[(1S)-1-(p-tolyl)propyl]sulfamoyl]phenyl]prop-2-enoic acid
@<TRIPOS>ATOM
      1 C1          1.6150    7.3593   -3.2955 C.3       1 <0>        -0.1523
      2 C2          2.6777    6.5114   -2.5937 C.3       1 <0>        -0.1369
      3 C3          2.1693    5.0758   -2.4466 C.3       1 <0>         0.1961
      4 H1          1.2068    5.0819   -1.9351 H         1 <0>         0.0937
      5 C4          2.0089    4.4573   -3.8114 C.ar      1 <0>        -0.0909
      6 C5          3.1136    3.9663   -4.4819 C.ar      1 <0>        -0.1066
      7 C6          2.9658    3.3946   -5.7317 C.ar      1 <0>        -0.1188
      8 C7          1.7149    3.3233   -6.3156 C.ar      1 <0>        -0.0860
      9 C8          0.6110    3.8190   -5.6474 C.ar      1 <0>        -0.1155
     10 C9          0.7580    4.3860   -4.3953 C.ar      1 <0>        -0.1018
     11 C10         1.5547    2.7057   -7.6809 C.3       1 <0>        -0.1160
     12 N1          3.1320    4.2944   -1.6664 N.pl3     1 <0>        -1.1124
     13 S1          2.9054    4.0877   -0.0390 S.o2      1 <0>         2.6947
     14 O1          2.6324    5.3740    0.4996 O.2       1 <0>        -0.9568
     15 O2          3.9811    3.2815    0.4217 O.2       1 <0>        -0.9627
     16 C11         1.4379    3.1342    0.1656 C.ar      1 <0>        -0.6956
     17 C12         1.5148    1.7529    0.2080 C.ar      1 <0>        -0.0150
     18 C13         0.3709    0.9997    0.3675 C.ar      1 <0>        -0.1388
     19 C14        -0.8699    1.6349    0.4812 C.ar      1 <0>         0.0309
     20 C15        -0.9386    3.0312    0.4427 C.ar      1 <0>        -0.1444
     21 C16         0.2143    3.7704    0.2827 C.ar      1 <0>        -0.0191
     22 C17        -2.0964    0.8382    0.6454 C.2       1 <0>        -0.1423
     23 C18        -3.2916    1.4545    0.7548 C.2       1 <0>        -0.1164
     24 C19        -4.5102    0.6629    0.9180 C.2       1 <0>         0.4703
     25 O3         -4.4464   -0.5511    0.9552 O.co2     1 <0>        -0.6287
     26 H2          1.4843    7.0050   -4.3180 H         1 <0>         0.0578
     27 H3          0.6702    7.2754   -2.7583 H         1 <0>         0.0582
     28 H4          1.9333    8.4017   -3.3101 H         1 <0>         0.0586
     29 H5          2.8814    6.9276   -1.6072 H         1 <0>         0.0825
     30 H6          3.5933    6.5137   -3.1852 H         1 <0>         0.0694
     31 H7          4.0916    4.0260   -4.0276 H         1 <0>         0.1205
     32 H8          3.8284    3.0076   -6.2540 H         1 <0>         0.1213
     33 H9         -0.3663    3.7637   -6.1037 H         1 <0>         0.1237
     34 H10        -0.1044    4.7736   -3.8734 H         1 <0>         0.1252
     35 H11         1.6664    3.4762   -8.4437 H         1 <0>         0.0696
     36 H12         2.3161    1.9391   -7.8245 H         1 <0>         0.0655
     37 H13         0.5655    2.2549   -7.7619 H         1 <0>         0.0671
     38 H14         3.9022    3.8981   -2.1030 H         1 <0>         0.4165
     39 H15         2.4733    1.2638    0.1163 H         1 <0>         0.1365
     40 H16         0.4324   -0.0781    0.4000 H         1 <0>         0.1348
     41 H17        -1.8927    3.5291    0.5335 H         1 <0>         0.1377
     42 H18         0.1624    4.8486    0.2483 H         1 <0>         0.1371
     43 H19        -2.0397   -0.2398    0.6785 H         1 <0>         0.1337
     44 H20        -3.3482    2.5325    0.7218 H         1 <0>         0.1107
     45 O4         -5.7053    1.2792    1.0274 O.co2     1 <0>        -0.7552
@<TRIPOS>BOND
     1    1    2 1
     2    1   26 1
     3    1   27 1
     4    1   28 1
     5    2    3 1
     6    2   29 1
     7    2   30 1
     8    3    4 1
     9    3    5 1
    10    3   12 1
    11    5   10 ar
    12    5    6 ar
    13    6    7 ar
    14    6   31 1
    15    7    8 ar
    16    7   32 1
    17    8    9 ar
    18    8   11 1
    19    9   10 ar
    20    9   33 1
    21   10   34 1
    22   11   35 1
    23   11   36 1
    24   11   37 1
    25   12   13 1
    26   12   38 1
    27   13   14 2
    28   13   15 2
    29   13   16 1
    30   16   21 ar
    31   16   17 ar
    32   17   18 ar
    33   17   39 1
    34   18   19 ar
    35   18   40 1
    36   19   20 ar
    37   19   22 1
    38   20   21 ar
    39   20   41 1
    40   21   42 1
    41   22   23 2
    42   22   43 1
    43   23   24 1
    44   23   44 1
    45   24   25 2
    46   24   45 1
@<TRIPOS>MOLECULE
ZINC41627224
   38    39     0     0     0
SMALL
USER_CHARGES

@<TRIPOS>ATOM
      1 C1         -0.0012    1.4779    0.0265 C.3       1 <0>        -0.1413
      2 C2          0.0169   -0.0520    0.0296 C.3       1 <0>        -0.0483
      3 C3          0.7519   -0.5508    1.2753 C.3       1 <0>        -0.1411
      4 C4         -1.3979   -0.5711    0.0395 C.2       1 <0>         0.2000
      5 C5         -1.8383   -1.3678   -0.9778 C.2       1 <0>        -0.2923
      6 C6         -3.1620   -1.8405   -0.9468 C.2       1 <0>         0.5306
      7 O1         -3.5881   -2.5548   -1.8394 O.2       1 <0>        -0.5316
      8 N1         -3.9526   -1.4893    0.0899 N.am      1 <0>        -0.6140
      9 H1         -4.8691   -1.8044    0.1317 H         1 <0>         0.4217
     10 C7         -3.4585   -0.6915    1.0768 C.2       1 <0>         0.3565
     11 N2         -2.2135   -0.2565    1.0425 N.2       1 <0>        -0.5401
     12 S1         -4.4976   -0.2379    2.4255 S.3       1 <0>         0.0828
     13 C8         -3.4371    0.8033    3.4657 C.3       1 <0>        -0.1428
     14 C9         -4.2141    1.2654    4.6714 C.2       1 <0>         0.5375
     15 O2         -5.3696    0.9257    4.8150 O.2       1 <0>        -0.4969
     16 N3         -3.6251    2.0560    5.5903 N.am      1 <0>        -0.6607
     17 C10        -4.3723    2.5616    6.6613 C.ar      1 <0>         0.1413
     18 C11        -5.3868    1.7988    7.2227 C.ar      1 <0>        -0.1324
     19 C12        -6.1230    2.3008    8.2810 C.ar      1 <0>         0.1141
     20 C13        -5.8484    3.5632    8.7801 C.ar      1 <0>        -0.1355
     21 C14        -4.8387    4.3254    8.2225 C.ar      1 <0>        -0.1031
     22 C15        -4.0956    3.8265    7.1681 C.ar      1 <0>         0.0670
     23 F1         -3.1053    4.5697    6.6275 F         1 <0>        -0.1303
     24 F2         -7.1110    1.5592    8.8278 F         1 <0>        -0.1275
     25 H2          1.0220    1.8534    0.0193 H         1 <0>         0.0652
     26 H3         -0.5249    1.8333   -0.8610 H         1 <0>         0.0551
     27 H4         -0.5138    1.8370    0.9190 H         1 <0>         0.0643
     28 H5          0.5294   -0.4110   -0.8629 H         1 <0>         0.0922
     29 H6          0.2394   -0.1917    2.1677 H         1 <0>         0.0642
     30 H7          0.7648   -1.6407    1.2775 H         1 <0>         0.0551
     31 H8          1.7752   -0.1753    1.2681 H         1 <0>         0.0652
     32 H9         -1.1808   -1.6304   -1.7933 H         1 <0>         0.1575
     33 H10        -2.5699    0.2284    3.7907 H         1 <0>         0.1388
     34 H11        -3.1051    1.6697    2.8936 H         1 <0>         0.1389
     35 H12        -2.6835    2.2749    5.5098 H         1 <0>         0.4221
     36 H13        -5.6016    0.8145    6.8336 H         1 <0>         0.1633
     37 H14        -6.4243    3.9531    9.6063 H         1 <0>         0.1506
     38 H15        -4.6272    5.3097    8.6134 H         1 <0>         0.1539
@<TRIPOS>BOND
     1    1    2 1
     2    1   25 1
     3    1   26 1
     4    1   27 1
     5    2    3 1
     6    2    4 1
     7    2   28 1
     8    3   29 1
     9    3   30 1
    10    3   31 1
    11    4   11 1
    12    4    5 2
    13    5    6 1
    14    5   32 1
    15    6    7 2
    16    6    8 am
    17    8    9 1
    18    8   10 1
    19   10   11 2
    20   10   12 1
    21   12   13 1
    22   13   14 1
    23   13   33 1
    24   13   34 1
    25   14   15 2
    26   14   16 am
    27   16   17 1
    28   16   35 1
    29   17   22 ar
    30   17   18 ar
    31   18   19 ar
    32   18   36 1
    33   19   20 ar
    34   19   24 1
    35   20   21 ar
    36   20   37 1
    37   21   22 ar
    38   21   38 1
    39   22   23 1
@<TRIPOS>MOLECULE
ZINC48382388
   42    43     0     0     0
SMALL
USER_CHARGES

@<TRIPOS>ATOM
      1 C1         -2.3569    0.8269    1.9203 C.3       1 <0>        -0.1478
      2 C2         -1.8457   -0.5558    1.5110 C.3       1 <0>        -0.1261
      3 C3         -0.6282   -0.9220    2.3621 C.3       1 <0>         0.0606
      4 O1         -0.1508   -2.2135    1.9798 O.3       1 <0>        -0.3094
      5 C4          0.9351   -2.6919    2.6442 C.ar      1 <0>         0.0995
      6 C5          1.5240   -1.9373    3.6458 C.ar      1 <0>        -0.1788
      7 C6          2.6275   -2.4247    4.3210 C.ar      1 <0>        -0.1031
      8 C7          3.1471   -3.6663    3.9993 C.ar      1 <0>        -0.0458
      9 C8          2.5649   -4.4251    3.0004 C.ar      1 <0>        -0.0930
     10 C9          1.4539   -3.9440    2.3231 C.ar      1 <0>         0.1571
     11 N1          0.8584   -4.7136    1.3149 N.am      1 <0>        -0.6491
     12 C10         0.9988   -6.0540    1.3185 C.2       1 <0>         0.5333
     13 O2          1.5539   -6.6031    2.2467 O.2       1 <0>        -0.5253
     14 C11         0.4662   -6.8705    0.1693 C.3       1 <0>        -0.0852
     15 H1         -0.3519   -6.3350   -0.3124 H         1 <0>         0.0973
     16 C12        -0.0365   -8.2201    0.6866 C.3       1 <0>        -0.0685
     17 C13         1.1212   -9.0728    1.1161 C.2       1 <0>        -0.1568
     18 C14         2.3495   -8.8556    0.7703 C.2       1 <0>        -0.1326
     19 C15         2.7888   -7.7149   -0.1003 C.3       1 <0>        -0.0681
     20 C16         1.5869   -7.1225   -0.8472 C.3       1 <0>        -0.1440
     21 H2          1.2439   -7.8289   -1.6032 H         1 <0>         0.0780
     22 C17         1.9781   -5.8230   -1.5025 C.2       1 <0>         0.4969
     23 O3          3.1214   -5.6566   -1.8920 O.co2     1 <0>        -0.6900
     24 O4          1.1513   -4.9381   -1.6431 O.co2     1 <0>        -0.6958
     25 Cl1         4.5330   -4.2724    4.8511 Cl        1 <0>        -0.0750
     26 H3         -1.5703    1.5655    1.7659 H         1 <0>         0.0569
     27 H4         -3.2243    1.0878    1.3139 H         1 <0>         0.0633
     28 H5         -2.6404    0.8126    2.9727 H         1 <0>         0.0554
     29 H6         -2.6324   -1.2943    1.6653 H         1 <0>         0.0737
     30 H7         -1.5623   -0.5415    0.4586 H         1 <0>         0.0775
     31 H8          0.1584   -0.1835    2.2078 H         1 <0>         0.0618
     32 H9         -0.9117   -0.9363    3.4145 H         1 <0>         0.0601
     33 H10         1.1211   -0.9678    3.8989 H         1 <0>         0.1365
     34 H11         3.0855   -1.8348    5.1012 H         1 <0>         0.1319
     35 H12         2.9725   -5.3935    2.7506 H         1 <0>         0.1641
     36 H13         0.3450   -4.2816    0.6144 H         1 <0>         0.4276
     37 H14        -0.6999   -8.0570    1.5361 H         1 <0>         0.0652
     38 H15        -0.5857   -8.7288   -0.1056 H         1 <0>         0.0752
     39 H16         0.9168   -9.9207    1.7531 H         1 <0>         0.0931
     40 H17         3.1052   -9.5380    1.1303 H         1 <0>         0.0924
     41 H18         3.2433   -6.9418    0.5193 H         1 <0>         0.0674
     42 H19         3.5219   -8.0733   -0.8229 H         1 <0>         0.0698
@<TRIPOS>BOND
     1    1    2 1
     2    1   26 1
     3    1   27 1
     4    1   28 1
     5    2    3 1
     6    2   29 1
     7    2   30 1
     8    3    4 1
     9    3   31 1
    10    3   32 1
    11    4    5 1
    12    5   10 ar
    13    5    6 ar
    14    6    7 ar
    15    6   33 1
    16    7    8 ar
    17    7   34 1
    18    8    9 ar
    19    8   25 1
    20    9   10 ar
    21    9   35 1
    22   10   11 1
    23   11   12 am
    24   11   36 1
    25   12   13 2
    26   12   14 1
    27   14   15 1
    28   14   20 1
    29   14   16 1
    30   16   17 1
    31   16   37 1
    32   16   38 1
    33   17   18 2
    34   17   39 1
    35   18   19 1
    36   18   40 1
    37   19   20 1
    38   19   41 1
    39   19   42 1
    40   20   21 1
    41   20   22 1
    42   22   23 2
    43   22   24 1
@<TRIPOS>MOLECULE
ZINC05907339
   57    58     0     0     0
SMALL
USER_CHARGES

@<TRIPOS>ATOM
      1 C1          0.3192   -6.7072    2.7627 C.3       1 <0>        -0.1467
      2 C2          0.6348   -5.4172    2.0028 C.3       1 <0>        -0.1262
      3 C3          1.1277   -5.7617    0.5960 C.3       1 <0>        -0.0795
      4 H1          1.9749   -6.4440    0.6647 H         1 <0>         0.0613
      5 C4         -0.0020   -6.4290   -0.1911 C.3       1 <0>        -0.1435
      6 C5          1.5610   -4.4810   -0.1204 C.3       1 <0>         0.0912
      7 H2          0.7137   -3.7987   -0.1891 H         1 <0>         0.0790
      8 C6          2.6737   -3.8237    0.6548 C.2       1 <0>         0.4915
      9 O1          3.8060   -3.8100    0.2030 O.co2     1 <0>        -0.6877
     10 O2          2.4415   -3.3057    1.7338 O.co2     1 <0>        -0.6943
     11 N1          2.0329   -4.8108   -1.4675 N.am      1 <0>        -0.7143
     12 C7          1.9894   -3.8818   -2.4430 C.2       1 <0>         0.7174
     13 O3          1.4621   -2.8062   -2.2351 O.2       1 <0>        -0.5906
     14 N2          2.5305   -4.1452   -3.6490 N.am      1 <0>        -0.6306
     15 C8          2.5808   -3.0992   -4.6735 C.3       1 <0>         0.1791
     16 C9          3.3973   -1.9145   -4.1532 C.3       1 <0>        -0.1379
     17 C10         3.4498   -0.8221   -5.2231 C.3       1 <0>        -0.1113
     18 C11         2.0286   -0.3583   -5.5486 C.3       1 <0>        -0.1200
     19 C12         1.2121   -1.5430   -6.0689 C.3       1 <0>        -0.1112
     20 C13         1.1596   -2.6354   -4.9990 C.3       1 <0>        -0.1384
     21 C14         3.0683   -5.4775   -3.9353 C.3       1 <0>         0.1471
     22 C15         1.9684   -6.5236   -3.7436 C.3       1 <0>        -0.1481
     23 C16         2.5301   -7.9149   -4.0427 C.3       1 <0>        -0.1123
     24 C17         3.6890   -8.2128   -3.0892 C.3       1 <0>        -0.1245
     25 C18         4.7889   -7.1668   -3.2809 C.3       1 <0>        -0.1135
     26 C19         4.2272   -5.7754   -2.9819 C.3       1 <0>        -0.1503
     27 H3         -0.4550   -7.2613    2.2320 H         1 <0>         0.0455
     28 H4          1.2197   -7.3174    2.8324 H         1 <0>         0.0472
     29 H5         -0.0320   -6.4618    3.7650 H         1 <0>         0.0476
     30 H6         -0.2657   -4.8070    1.9331 H         1 <0>         0.0542
     31 H7          1.4090   -4.8631    2.5335 H         1 <0>         0.1025
     32 H8          0.3491   -6.6743   -1.1934 H         1 <0>         0.0460
     33 H9         -0.3107   -7.3413    0.3192 H         1 <0>         0.0510
     34 H10        -0.8493   -5.7467   -0.2598 H         1 <0>         0.0512
     35 H11         2.3767   -5.6977   -1.6574 H         1 <0>         0.3908
     36 H12         3.0490   -3.4954   -5.5745 H         1 <0>         0.0739
     37 H13         2.9291   -1.5184   -3.2521 H         1 <0>         0.0891
     38 H14         4.4098   -2.2450   -3.9213 H         1 <0>         0.0583
     39 H15         4.0315    0.0219   -4.8524 H         1 <0>         0.0601
     40 H16         3.9180   -1.2183   -6.1242 H         1 <0>         0.0549
     41 H17         1.5604    0.0379   -4.6475 H         1 <0>         0.0653
     42 H18         2.0660    0.4199   -6.3109 H         1 <0>         0.0554
     43 H19         0.1996   -1.2126   -6.3008 H         1 <0>         0.0584
     44 H20         1.6803   -1.9392   -6.9700 H         1 <0>         0.0546
     45 H21         0.5779   -3.4794   -5.3696 H         1 <0>         0.0529
     46 H22         0.6913   -2.2392   -4.0979 H         1 <0>         0.0941
     47 H23         3.4265   -5.5113   -4.9643 H         1 <0>         0.0843
     48 H24         1.6102   -6.4898   -2.7147 H         1 <0>         0.0768
     49 H25         1.1428   -6.3113   -4.4229 H         1 <0>         0.0668
     50 H26         1.7465   -8.6602   -3.9061 H         1 <0>         0.0629
     51 H27         2.8882   -7.9487   -5.0716 H         1 <0>         0.0617
     52 H28         3.3308   -8.1791   -2.0603 H         1 <0>         0.0636
     53 H29         4.0892   -9.2041   -3.3023 H         1 <0>         0.0615
     54 H30         5.6146   -7.3790   -2.6017 H         1 <0>         0.0650
     55 H31         5.1471   -7.2005   -4.3099 H         1 <0>         0.0588
     56 H32         5.0109   -5.0301   -3.1185 H         1 <0>         0.0695
     57 H33         3.8691   -5.7416   -1.9529 H         1 <0>         0.0904
@<TRIPOS>BOND
     1    1    2 1
     2    1   27 1
     3    1   28 1
     4    1   29 1
     5    2    3 1
     6    2   30 1
     7    2   31 1
     8    3    4 1
     9    3    5 1
    10    3    6 1
    11    5   32 1
    12    5   33 1
    13    5   34 1
    14    6    7 1
    15    6    8 1
    16    6   11 1
    17    8    9 2
    18    8   10 1
    19   11   12 am
    20   11   35 1
    21   12   13 2
    22   12   14 am
    23   14   15 1
    24   14   21 1
    25   15   20 1
    26   15   16 1
    27   15   36 1
    28   16   17 1
    29   16   37 1
    30   16   38 1
    31   17   18 1
    32   17   39 1
    33   17   40 1
    34   18   19 1
    35   18   41 1
    36   18   42 1
    37   19   20 1
    38   19   43 1
    39   19   44 1
    40   20   45 1
    41   20   46 1
    42   21   26 1
    43   21   22 1
    44   21   47 1
    45   22   23 1
    46   22   48 1
    47   22   49 1
    48   23   24 1
    49   23   50 1
    50   23   51 1
    51   24   25 1
    52   24   52 1
    53   24   53 1
    54   25   26 1
    55   25   54 1
    56   25   55 1
    57   26   56 1
    58   26   57 1
@<TRIPOS>MOLECULE
ZINC18130444
   40    42     0     0     0
SMALL
USER_CHARGES

@<TRIPOS>ATOM
      1 C1         -1.0169    0.4886   -3.1967 C.3       1 <0>        -0.1528
      2 C2         -0.7445   -0.7802   -2.3863 C.3       1 <0>         0.0510
      3 O1         -1.8245   -1.0064   -1.4782 O.3       1 <0>        -0.3054
      4 C3         -1.7385   -2.1021   -0.6773 C.ar      1 <0>         0.0957
      5 C4         -0.6391   -2.9337   -0.7610 C.ar      1 <0>        -0.1614
      6 C5         -0.5539   -4.0606    0.0656 C.ar      1 <0>        -0.0659
      7 C6         -1.5842   -4.3378    0.9723 C.ar      1 <0>        -0.0625
      8 C7         -2.6770   -3.5024    1.0485 C.ar      1 <0>        -0.1154
      9 C8         -2.7576   -2.3823    0.2320 C.ar      1 <0>         0.1013
     10 O2         -3.8355   -1.5595    0.3157 O.3       1 <0>        -0.4858
     11 C9          0.6121   -4.9494   -0.0185 C.2       1 <0>         0.0720
     12 C10         0.4494   -6.2935    0.0787 C.2       1 <0>        -0.2279
     13 C11        -0.7942   -7.0870    0.0969 C.2       1 <0>         0.5462
     14 O3         -1.8876   -6.5579    0.0191 O.2       1 <0>        -0.4738
     15 N1         -0.6670   -8.3990    0.2011 N.am      1 <0>        -0.6885
     16 C12         0.5797   -8.9790    0.2876 C.2       1 <0>         0.3709
     17 N2          0.8824  -10.2535    0.3943 N.2       1 <0>        -0.4509
     18 C13        -0.1125  -11.1923    0.4312 C.ar      1 <0>         0.0874
     19 C14        -1.2401  -10.9886    1.2301 C.ar      1 <0>        -0.1668
     20 C15        -2.2393  -11.9389    1.2620 C.ar      1 <0>        -0.0982
     21 C16        -2.1264  -13.0920    0.5055 C.ar      1 <0>        -0.1220
     22 C17        -1.0121  -13.3004   -0.2881 C.ar      1 <0>        -0.1005
     23 C18        -0.0079  -12.3560   -0.3342 C.ar      1 <0>        -0.0987
     24 S1          1.6843   -7.5784    0.2112 S.3       1 <0>         0.0931
     25 H1         -0.1932    0.6611   -3.8894 H         1 <0>         0.0798
     26 H2         -1.9442    0.3696   -3.7573 H         1 <0>         0.0667
     27 H3         -1.1075    1.3390   -2.5209 H         1 <0>         0.0679
     28 H4         -0.6540   -1.6306   -3.0621 H         1 <0>         0.0621
     29 H5          0.1827   -0.6612   -1.8257 H         1 <0>         0.0634
     30 H6          0.1527   -2.7155   -1.4623 H         1 <0>         0.1383
     31 H7         -1.5224   -5.2062    1.6114 H         1 <0>         0.1286
     32 H8         -3.4711   -3.7170    1.7483 H         1 <0>         0.1396
     33 H9         -4.5626   -1.8027   -0.2736 H         1 <0>         0.3908
     34 H10         1.5991   -4.5336   -0.1577 H         1 <0>         0.1588
     35 H11        -1.4592   -8.9585    0.2171 H         1 <0>         0.4186
     36 H12        -1.3292  -10.0893    1.8215 H         1 <0>         0.1214
     37 H13        -3.1117  -11.7827    1.8792 H         1 <0>         0.1287
     38 H14        -2.9115  -13.8331    0.5349 H         1 <0>         0.1285
     39 H15        -0.9304  -14.2029   -0.8757 H         1 <0>         0.1324
     40 H16         0.8592  -12.5178   -0.9575 H         1 <0>         0.1337
@<TRIPOS>BOND
     1    1    2 1
     2    1   25 1
     3    1   26 1
     4    1   27 1
     5    2    3 1
     6    2   28 1
     7    2   29 1
     8    3    4 1
     9    4    9 ar
    10    4    5 ar
    11    5    6 ar
    12    5   30 1
    13    6    7 ar
    14    6   11 1
    15    7    8 ar
    16    7   31 1
    17    8    9 ar
    18    8   32 1
    19    9   10 1
    20   10   33 1
    21   11   12 2
    22   11   34 1
    23   12   24 1
    24   12   13 1
    25   13   14 2
    26   13   15 am
    27   15   16 1
    28   15   35 1
    29   16   17 2
    30   16   24 1
    31   17   18 1
    32   18   23 ar
    33   18   19 ar
    34   19   20 ar
    35   19   36 1
    36   20   21 ar
    37   20   37 1
    38   21   22 ar
    39   21   38 1
    40   22   23 ar
    41   22   39 1
    42   23   40 1
@<TRIPOS>MOLECULE
ZINC21013833
   36    36     0     0     0
SMALL
USER_CHARGES
2-[4-methyl-2-[2-oxo-2-(sec-butylamino)ethyl]sulfanyl-thiazol-5-yl]acetic acid
@<TRIPOS>ATOM
      1 C1         -0.7527    1.5927   -1.2315 C.3       1 <0>        -0.1553
      2 C2         -0.0127    1.0858    0.0080 C.3       1 <0>        -0.1297
      3 C3         -0.7288    1.5792    1.2668 C.3       1 <0>         0.1434
      4 H1         -0.8673    2.6699    1.2313 H         1 <0>         0.0885
      5 C4          0.0786    1.1786    2.5031 C.3       1 <0>        -0.1659
      6 N1         -2.0622    0.9766    1.3380 N.am      1 <0>        -0.7326
      7 C5         -3.0456    1.5949    2.0214 C.2       1 <0>         0.5360
      8 O1         -2.8267    2.6503    2.5774 O.2       1 <0>        -0.5298
      9 C6         -4.4172    0.9750    2.0947 C.3       1 <0>        -0.1515
     10 S1         -5.5074    2.0361    3.0752 S.3       1 <0>         0.0833
     11 C7         -6.9973    1.0987    2.9981 C.2       1 <0>        -0.0058
     12 N2         -7.2253   -0.0474    2.3841 N.2       1 <0>        -0.4934
     13 C8         -8.4123   -0.6223    2.4308 C.2       1 <0>         0.0328
     14 C9         -9.4031   -0.0039    3.1167 C.2       1 <0>        -0.1000
     15 S2         -8.5447    1.4491    3.7039 S.3       1 <0>         0.0966
     16 C10       -10.8347   -0.4250    3.3265 C.3       1 <0>        -0.0871
     17 C11       -10.9337   -1.2651    4.5736 C.2       1 <0>         0.4676
     18 O2         -9.9432   -1.4980    5.2253 O.co2     1 <0>        -0.6244
     19 O3        -12.1221   -1.7546    4.9606 O.co2     1 <0>        -0.7629
     20 C12        -8.6613   -1.9341    1.7321 C.3       1 <0>        -0.0708
     21 H2         -0.2378    1.2380   -2.1365 H         1 <0>         0.0559
     22 H3         -0.7676    2.6926   -1.2254 H         1 <0>         0.0553
     23 H4         -1.7847    1.2120   -1.2237 H         1 <0>         0.0572
     24 H5          0.0022   -0.0141    0.0019 H         1 <0>         0.0695
     25 H6          1.0193    1.4665    0.0002 H         1 <0>         0.0777
     26 H7         -0.4363    1.5334    3.4081 H         1 <0>         0.0623
     27 H8          1.0798    1.6311    2.4496 H         1 <0>         0.0649
     28 H9          0.1728    0.0833    2.5404 H         1 <0>         0.0580
     29 H10        -2.2608    0.0194    0.8337 H         1 <0>         0.4218
     30 H11        -4.8260    0.8681    1.0791 H         1 <0>         0.1227
     31 H12        -4.3471   -0.0156    2.5679 H         1 <0>         0.1237
     32 H13       -11.4675    0.4682    3.4350 H         1 <0>         0.0868
     33 H14       -11.1748   -1.0123    2.4608 H         1 <0>         0.0978
     34 H15        -9.7054   -2.2417    1.8910 H         1 <0>         0.0749
     35 H16        -7.9868   -2.7010    2.1408 H         1 <0>         0.0692
     36 H17        -8.4734   -1.8171    0.6546 H         1 <0>         0.0633
@<TRIPOS>BOND
     1    1    2 1
     2    1   21 1
     3    1   22 1
     4    1   23 1
     5    2    3 1
     6    2   24 1
     7    2   25 1
     8    3    4 1
     9    3    5 1
    10    3    6 1
    11    5   26 1
    12    5   27 1
    13    5   28 1
    14    6    7 am
    15    6   29 1
    16    7    8 2
    17    7    9 1
    18    9   10 1
    19    9   30 1
    20    9   31 1
    21   10   11 1
    22   11   15 1
    23   11   12 2
    24   12   13 1
    25   13   14 2
    26   13   20 1
    27   14   15 1
    28   14   16 1
    29   16   17 1
    30   16   32 1
    31   16   33 1
    32   17   18 2
    33   17   19 1
    34   20   34 1
    35   20   35 1
    36   20   36 1
@<TRIPOS>MOLECULE
ZINC37013544
   46    46     0     0     0
SMALL
USER_CHARGES

@<TRIPOS>ATOM
      1 C1         -0.0187    1.5258    0.0104 C.3       1 <0>        -0.1563
      2 C2          0.0021   -0.0041    0.0020 C.3       1 <0>        -0.1149
      3 C3          0.7421   -0.5109    1.2415 C.3       1 <0>        -0.0595
      4 C4          2.1775    0.0187    1.2307 C.3       1 <0>        -0.1505
      5 C5          0.0259   -0.0175    2.5003 C.3       1 <0>        -0.1451
      6 C6          0.7628   -2.0407    1.2331 C.3       1 <0>        -0.0761
      7 C7          1.4790   -2.5342   -0.0257 C.3       1 <0>        -0.1183
      8 C8          1.4997   -4.0640   -0.0341 C.3       1 <0>        -0.1264
      9 C9          2.2397   -4.5708    1.2054 C.3       1 <0>         0.1535
     10 C10         1.5236   -4.0774    2.4642 C.3       1 <0>        -0.1380
     11 C11         1.5028   -2.5476    2.4727 C.3       1 <0>        -0.1152
     12 N1          3.6141   -4.0637    1.1950 N.pl3     1 <0>        -1.1149
     13 S1          4.8465   -4.9998    1.7844 S.o2      1 <0>         2.5927
     14 O1          6.0109   -4.1978    1.6423 O.2       1 <0>        -0.9709
     15 O2          4.4045   -5.4139    3.0699 O.2       1 <0>        -0.9654
     16 C12         4.9278   -6.4234    0.6631 C.3       1 <0>        -0.5754
     17 C13         6.0443   -7.3664    1.1162 C.3       1 <0>        -0.1804
     18 C14         6.1118   -8.5491    0.1846 C.2       1 <0>         0.5016
     19 O3          5.3386   -8.6303   -0.7546 O.co2     1 <0>        -0.6919
     20 O4          6.9396   -9.4247    0.3702 O.co2     1 <0>        -0.6952
     21 H1          1.0039    1.9031    0.0027 H         1 <0>         0.0563
     22 H2         -0.5459    1.8868   -0.8726 H         1 <0>         0.0488
     23 H3         -0.5289    1.8773    0.9072 H         1 <0>         0.0548
     24 H4         -1.0205   -0.3814    0.0098 H         1 <0>         0.0587
     25 H5          0.5123   -0.3556   -0.8948 H         1 <0>         0.0647
     26 H6          2.1627    1.1086    1.2367 H         1 <0>         0.0542
     27 H7          2.7046   -0.3424    2.1137 H         1 <0>         0.0583
     28 H8          2.6876   -0.3328    0.3339 H         1 <0>         0.0579
     29 H9         -0.9967   -0.3948    2.5081 H         1 <0>         0.0518
     30 H10         0.5531   -0.3786    3.3834 H         1 <0>         0.0575
     31 H11         0.0111    1.0724    2.5063 H         1 <0>         0.0544
     32 H12        -0.2598   -2.4180    1.2409 H         1 <0>         0.0693
     33 H13         0.9518   -2.1731   -0.9087 H         1 <0>         0.0662
     34 H14         2.5015   -2.1569   -0.0334 H         1 <0>         0.0657
     35 H15         0.4771   -4.4413   -0.0263 H         1 <0>         0.0745
     36 H16         2.0099   -4.4155   -0.9309 H         1 <0>         0.0728
     37 H17         2.2545   -5.6607    1.1994 H         1 <0>         0.0851
     38 H18         0.5010   -4.4547    2.4720 H         1 <0>         0.0694
     39 H19         2.0507   -4.4385    3.3473 H         1 <0>         0.0794
     40 H20         2.5254   -2.1703    2.4649 H         1 <0>         0.0672
     41 H21         0.9926   -2.1961    3.3695 H         1 <0>         0.0629
     42 H22         3.8022   -3.1797    0.8430 H         1 <0>         0.4117
     43 H23         3.9755   -6.9536    0.6794 H         1 <0>         0.1269
     44 H24         5.1335   -6.0770   -0.3497 H         1 <0>         0.1295
     45 H25         6.9965   -6.8362    1.0999 H         1 <0>         0.0742
     46 H26         5.8386   -7.7128    2.1289 H         1 <0>         0.0746
@<TRIPOS>BOND
     1    1    2 1
     2    1   21 1
     3    1   22 1
     4    1   23 1
     5    2    3 1
     6    2   24 1
     7    2   25 1
     8    3    4 1
     9    3    5 1
    10    3    6 1
    11    4   26 1
    12    4   27 1
    13    4   28 1
    14    5   29 1
    15    5   30 1
    16    5   31 1
    17    6   11 1
    18    6    7 1
    19    6   32 1
    20    7    8 1
    21    7   33 1
    22    7   34 1
    23    8    9 1
    24    8   35 1
    25    8   36 1
    26    9   10 1
    27    9   12 1
    28    9   37 1
    29   10   11 1
    30   10   38 1
    31   10   39 1
    32   11   40 1
    33   11   41 1
    34   12   13 1
    35   12   42 1
    36   13   14 2
    37   13   15 2
    38   13   16 1
    39   16   17 1
    40   16   43 1
    41   16   44 1
    42   17   18 1
    43   17   45 1
    44   17   46 1
    45   18   19 2
    46   18   20 1
@<TRIPOS>MOLECULE
ZINC37843589
   32    32     0     0     0
SMALL
USER_CHARGES

@<TRIPOS>ATOM
      1 C1         -0.0178    1.4608    0.0101 C.3       1 <0>         0.0926
      2 N1          0.0021   -0.0041    0.0020 N.am      1 <0>        -0.7375
      3 C2          0.6044   -0.6754    1.0035 C.2       1 <0>         0.5591
      4 O1          1.1311   -0.0654    1.9135 O.2       1 <0>        -0.5249
      5 C3          0.6244   -2.1530    0.9954 C.ar      1 <0>        -0.0942
      6 C4          0.0255   -2.8558   -0.0510 C.ar      1 <0>        -0.1409
      7 C5          0.0488   -4.2413   -0.0519 C.ar      1 <0>         0.2786
      8 C6          0.6673   -4.9276    0.9873 C.ar      1 <0>        -0.2210
      9 C7          1.2603   -4.2331    2.0241 C.ar      1 <0>        -0.0654
     10 C8          1.2480   -2.8514    2.0322 C.ar      1 <0>        -0.0810
     11 Cl1         2.0008   -1.9838    3.3338 Cl        1 <0>        -0.0763
     12 N2         -0.5502   -4.9494   -1.0976 N.2       1 <0>        -1.0968
     13 S1         -0.5226   -6.6052   -1.0991 S.o2      1 <0>         2.5306
     14 O2          0.8534   -6.9448   -1.2018 O.2       1 <0>        -1.0220
     15 O3         -1.2783   -6.9814    0.0440 O.2       1 <0>        -1.0220
     16 C9         -1.3992   -7.0847   -2.6131 C.3       1 <0>        -0.6011
     17 C10        -1.4354   -8.6105   -2.7199 C.3       1 <0>        -0.1226
     18 C11        -2.1747   -9.0150   -3.9969 C.3       1 <0>        -0.0198
     19 Cl2        -2.2174  -10.8131   -4.1228 Cl        1 <0>        -0.1932
     20 H1          1.0048    1.8381    0.0023 H         1 <0>         0.0559
     21 H2         -0.5450    1.8219   -0.8730 H         1 <0>         0.0706
     22 H3         -0.5280    1.8123    0.9069 H         1 <0>         0.0559
     23 H4         -0.4183   -0.4908   -0.7241 H         1 <0>         0.4034
     24 H5         -0.4549   -2.3215   -0.8573 H         1 <0>         0.1237
     25 H6          0.6840   -6.0074    0.9841 H         1 <0>         0.1133
     26 H7          1.7388   -4.7719    2.8285 H         1 <0>         0.1206
     27 H8         -2.4179   -6.6984   -2.5809 H         1 <0>         0.1250
     28 H9         -0.8813   -6.6720   -3.4789 H         1 <0>         0.1250
     29 H10        -0.4166   -8.9968   -2.7521 H         1 <0>         0.0859
     30 H11        -1.9532   -9.0232   -1.8541 H         1 <0>         0.0859
     31 H12        -3.1935   -8.6287   -3.9647 H         1 <0>         0.0963
     32 H13        -1.6569   -8.6023   -4.8627 H         1 <0>         0.0963
@<TRIPOS>BOND
     1    1    2 1
     2    1   20 1
     3    1   21 1
     4    1   22 1
     5    2    3 am
     6    2   23 1
     7    3    4 2
     8    3    5 1
     9    5   10 ar
    10    5    6 ar
    11    6    7 ar
    12    6   24 1
    13    7    8 ar
    14    7   12 1
    15    8    9 ar
    16    8   25 1
    17    9   10 ar
    18    9   26 1
    19   10   11 1
    20   12   13 1
    21   13   14 2
    22   13   15 2
    23   13   16 1
    24   16   17 1
    25   16   27 1
    26   16   28 1
    27   17   18 1
    28   17   29 1
    29   17   30 1
    30   18   19 1
    31   18   31 1
    32   18   32 1
@<TRIPOS>MOLECULE
ZINC43370783
   42    43     0     0     0
SMALL
USER_CHARGES

@<TRIPOS>ATOM
      1 C1         -0.0187    1.5258    0.0104 C.3       1 <0>        -0.1536
      2 C2          0.0021   -0.0041    0.0020 C.3       1 <0>         0.0554
      3 O1         -1.3386   -0.4987    0.0122 O.3       1 <0>        -0.3036
      4 C3         -1.4984   -1.8491    0.0064 C.ar      1 <0>         0.1136
      5 C4         -0.3887   -2.6830   -0.0028 C.ar      1 <0>        -0.1575
      6 C5         -0.5563   -4.0497   -0.0068 C.ar      1 <0>        -0.1453
      7 C6         -1.8266   -4.6114    0.0047 C.ar      1 <0>         0.0723
      8 C7         -2.9358   -3.7700    0.0091 C.ar      1 <0>        -0.0926
      9 C8         -2.7708   -2.4004    0.0156 C.ar      1 <0>        -0.0991
     10 C9         -3.9787   -1.4993    0.0274 C.3       1 <0>         0.1509
     11 H1         -3.7715   -0.6061   -0.5618 H         1 <0>         0.1144
     12 C10        -4.3006   -1.0968    1.4680 C.3       1 <0>        -0.1110
     13 C11        -5.4479   -0.0845    1.4704 C.3       1 <0>        -0.1552
     14 H2         -6.3009   -0.5009    0.9346 H         1 <0>         0.0683
     15 C12        -4.9927    1.2039    0.7821 C.3       1 <0>        -0.1177
     16 C13        -5.8470    0.2191    2.8915 C.2       1 <0>         0.4950
     17 O2         -6.3009    1.3142    3.1766 O.co2     1 <0>        -0.7013
     18 O3         -5.7159   -0.6304    3.7563 O.co2     1 <0>        -0.7030
     19 O4         -5.0953   -2.1921   -0.5344 O.3       1 <0>        -0.5555
     20 O5         -1.7635   -5.9722    0.0213 O.3       1 <0>        -0.3015
     21 C14        -0.4623   -6.3909   -0.4245 C.3       1 <0>         0.0769
     22 H3         -0.4533   -6.5391   -1.5043 H         1 <0>         0.0836
     23 C15         0.4365   -5.1960   -0.0277 C.3       1 <0>        -0.1039
     24 C16        -0.0259   -7.6664    0.2992 C.3       1 <0>        -0.1492
     25 H4          1.0039    1.9031    0.0027 H         1 <0>         0.0752
     26 H5         -0.5459    1.8868   -0.8726 H         1 <0>         0.0668
     27 H6         -0.5289    1.8773    0.9072 H         1 <0>         0.0707
     28 H7          0.5123   -0.3556   -0.8948 H         1 <0>         0.0576
     29 H8          0.5293   -0.3651    0.8851 H         1 <0>         0.0597
     30 H9          0.6051   -2.2603   -0.0073 H         1 <0>         0.1290
     31 H10        -3.9301   -4.1916    0.0116 H         1 <0>         0.1353
     32 H11        -4.5942   -1.9801    2.0351 H         1 <0>         0.0697
     33 H12        -3.4190   -0.6478    1.9254 H         1 <0>         0.0635
     34 H13        -4.7041    0.9843   -0.2458 H         1 <0>         0.0346
     35 H14        -5.8101    1.9250    0.7839 H         1 <0>         0.0537
     36 H15        -4.1397    1.6203    1.3180 H         1 <0>         0.0421
     37 H16        -5.3367   -2.9992   -0.0597 H         1 <0>         0.3703
     38 H17         1.2115   -5.0265   -0.7752 H         1 <0>         0.0882
     39 H18         0.8753   -5.3492    0.9583 H         1 <0>         0.0910
     40 H19        -0.7269   -8.4700    0.0738 H         1 <0>         0.0687
     41 H20         0.9720   -7.9503   -0.0350 H         1 <0>         0.0765
     42 H21        -0.0118   -7.4874    1.3743 H         1 <0>         0.0671
@<TRIPOS>BOND
     1    1    2 1
     2    1   25 1
     3    1   26 1
     4    1   27 1
     5    2    3 1
     6    2   28 1
     7    2   29 1
     8    3    4 1
     9    4    9 ar
    10    4    5 ar
    11    5    6 ar
    12    5   30 1
    13    6   23 1
    14    6    7 ar
    15    7    8 ar
    16    7   20 1
    17    8    9 ar
    18    8   31 1
    19    9   10 1
    20   10   11 1
    21   10   12 1
    22   10   19 1
    23   12   13 1
    24   12   32 1
    25   12   33 1
    26   13   14 1
    27   13   15 1
    28   13   16 1
    29   15   34 1
    30   15   35 1
    31   15   36 1
    32   16   17 2
    33   16   18 1
    34   19   37 1
    35   20   21 1
    36   21   22 1
    37   21   23 1
    38   21   24 1
    39   23   38 1
    40   23   39 1
    41   24   40 1
    42   24   41 1
    43   24   42 1
@<TRIPOS>MOLECULE
ZINC57411901
   29    30     0     0     0
SMALL
USER_CHARGES

@<TRIPOS>ATOM
      1 C1         -0.0169    1.3930    0.0097 C.ar      1 <0>        -0.1081
      2 C2          1.1700    2.0954    0.0021 C.ar      1 <0>        -0.0375
      3 C3          2.3776    1.4198   -0.0135 C.ar      1 <0>        -0.6873
      4 C4          2.4041    0.0362   -0.0212 C.ar      1 <0>        -0.0416
      5 C5          1.2251   -0.6794   -0.0133 C.ar      1 <0>        -0.1076
      6 C6          0.0021   -0.0041    0.0020 C.ar      1 <0>        -0.0725
      7 C7         -1.2634   -0.7626    0.0105 C.2       1 <0>         0.5144
      8 O1         -2.3322   -0.1685    0.0243 O.co2     1 <0>        -0.6772
      9 O2         -1.2434   -1.9853    0.0038 O.co2     1 <0>        -0.6771
     10 S1          3.8889    2.3257   -0.0242 S.o2      1 <0>         2.6983
     11 O3          4.8718    1.4691   -0.5893 O.2       1 <0>        -0.9633
     12 O4          3.5915    3.6054   -0.5656 O.2       1 <0>        -0.9643
     13 N1          4.3249    2.5694    1.5547 N.pl3     1 <0>        -1.1151
     14 C8          4.6711    1.4269    2.4038 C.3       1 <0>         0.1721
     15 C9          5.3717    1.9172    3.6446 C.2       1 <0>        -0.1351
     16 C10         6.7468    2.0557    3.6653 C.2       1 <0>        -0.1441
     17 C11         7.3458    2.4992    4.7975 C.2       1 <0>        -0.1754
     18 S2          5.9501    2.7367    5.8850 S.3       1 <0>         0.0335
     19 C12         4.6623    2.2342    4.7553 C.2       1 <0>        -0.1496
     20 H1         -0.9586    1.9215    0.0260 H         1 <0>         0.1367
     21 H2          1.1569    3.1753    0.0081 H         1 <0>         0.1323
     22 H3          3.3502   -0.4844   -0.0337 H         1 <0>         0.1324
     23 H4          1.2472   -1.7591   -0.0197 H         1 <0>         0.1369
     24 H5          4.3510    3.4687    1.9173 H         1 <0>         0.4175
     25 H6          3.7623    0.8952    2.6857 H         1 <0>         0.0784
     26 H7          5.3307    0.7538    1.8560 H         1 <0>         0.0891
     27 H8          7.3353    1.8139    2.7926 H         1 <0>         0.1381
     28 H9          8.3952    2.6654    4.9915 H         1 <0>         0.1860
     29 H10         3.5951    2.1926    4.9155 H         1 <0>         0.1901
@<TRIPOS>BOND
     1    1    6 ar
     2    1    2 ar
     3    1   20 1
     4    2    3 ar
     5    2   21 1
     6    3    4 ar
     7    3   10 1
     8    4    5 ar
     9    4   22 1
    10    5    6 ar
    11    5   23 1
    12    6    7 1
    13    7    8 2
    14    7    9 1
    15   10   11 2
    16   10   12 2
    17   10   13 1
    18   13   14 1
    19   13   24 1
    20   14   15 1
    21   14   25 1
    22   14   26 1
    23   15   19 2
    24   15   16 1
    25   16   17 2
    26   16   27 1
    27   17   18 1
    28   17   28 1
    29   18   19 1
    30   19   29 1
@<TRIPOS>MOLECULE
ZINC11666862
   41    43     0     0     0
SMALL
USER_CHARGES
4-[3-[5-(4-fluorophenyl)-2-furyl]propanoylamino]benzoic acid
@<TRIPOS>ATOM
      1 C1          4.0903   -0.6355   -0.2717 C.ar      1 <0>        -0.0712
      2 C2          5.4585   -0.5616   -0.4288 C.ar      1 <0>        -0.1484
      3 C3          6.0701    0.6656   -0.6298 C.ar      1 <0>         0.1016
      4 C4          5.3110    1.8239   -0.6800 C.ar      1 <0>        -0.1482
      5 C5          3.9415    1.7609   -0.5294 C.ar      1 <0>        -0.0745
      6 C6          3.3202    0.5275   -0.3266 C.ar      1 <0>        -0.0214
      7 C7          1.8529    0.4538   -0.1647 C.2       1 <0>         0.0177
      8 C8          1.1286   -0.6787    0.0376 C.2       1 <0>        -0.1817
      9 C9         -0.2214   -0.2852    0.1351 C.2       1 <0>        -0.2054
     10 C10        -0.2536    1.0537   -0.0109 C.2       1 <0>         0.0067
     11 O1          1.0014    1.4969   -0.1919 O.3       1 <0>        -0.1663
     12 C11        -1.4926    1.9110    0.0175 C.3       1 <0>        -0.0273
     13 C12        -1.7691    2.3603    1.4537 C.3       1 <0>        -0.1357
     14 C13        -3.0082    3.2176    1.4821 C.2       1 <0>         0.5089
     15 O2         -3.6107    3.4468    0.4549 O.2       1 <0>        -0.5164
     16 N1         -3.4467    3.7297    2.6492 N.am      1 <0>        -0.6678
     17 C14        -4.5268    4.6110    2.6616 C.ar      1 <0>         0.1276
     18 C15        -4.7159    5.4922    1.6013 C.ar      1 <0>        -0.1351
     19 C16        -5.7839    6.3604    1.6080 C.ar      1 <0>        -0.0602
     20 C17        -6.6733    6.3636    2.6867 C.ar      1 <0>        -0.1233
     21 C18        -6.4771    5.4806    3.7528 C.ar      1 <0>        -0.0696
     22 C19        -5.4099    4.6115    3.7369 C.ar      1 <0>        -0.1601
     23 C20        -7.8157    7.2959    2.6999 C.2       1 <0>         0.4889
     24 O3         -8.5880    7.2972    3.6380 O.co2     1 <0>        -0.6332
     25 F1          7.4113    0.7331   -0.7770 F         1 <0>        -0.1372
     26 H1          3.6151   -1.5919   -0.1102 H         1 <0>         0.1394
     27 H2          6.0549   -1.4612   -0.3905 H         1 <0>         0.1421
     28 H3          5.7927    2.7777   -0.8369 H         1 <0>         0.1412
     29 H4          3.3509    2.6643   -0.5680 H         1 <0>         0.1399
     30 H5          1.5131   -1.6853    0.1100 H         1 <0>         0.1513
     31 H6         -1.0695   -0.9342    0.2961 H         1 <0>         0.1533
     32 H7         -1.3433    2.7864   -0.6146 H         1 <0>         0.0936
     33 H8         -2.3411    1.3358   -0.3530 H         1 <0>         0.1071
     34 H9         -1.9184    1.4849    2.0858 H         1 <0>         0.1007
     35 H10        -0.9207    2.9355    1.8242 H         1 <0>         0.1003
     36 H11        -3.0108    3.4850    3.4804 H         1 <0>         0.4072
     37 H12        -4.0259    5.4922    0.7704 H         1 <0>         0.1272
     38 H13        -5.9324    7.0412    0.7828 H         1 <0>         0.1339
     39 H14        -7.1624    5.4802    4.5875 H         1 <0>         0.1308
     40 H15        -5.2580    3.9288    4.5599 H         1 <0>         0.1185
     41 O4         -8.0033    8.1463    1.6716 O.co2     1 <0>        -0.7545
@<TRIPOS>BOND
     1    1    6 ar
     2    1    2 ar
     3    1   26 1
     4    2    3 ar
     5    2   27 1
     6    3    4 ar
     7    3   25 1
     8    4    5 ar
     9    4   28 1
    10    5    6 ar
    11    5   29 1
    12    6    7 1
    13    7   11 1
    14    7    8 2
    15    8    9 1
    16    8   30 1
    17    9   10 2
    18    9   31 1
    19   10   11 1
    20   10   12 1
    21   12   13 1
    22   12   32 1
    23   12   33 1
    24   13   14 1
    25   13   34 1
    26   13   35 1
    27   14   15 2
    28   14   16 am
    29   16   17 1
    30   16   36 1
    31   17   22 ar
    32   17   18 ar
    33   18   19 ar
    34   18   37 1
    35   19   20 ar
    36   19   38 1
    37   20   21 ar
    38   20   23 1
    39   21   22 ar
    40   21   39 1
    41   22   40 1
    42   23   24 2
    43   23   41 1
@<TRIPOS>MOLECULE
ZINC13426723
   43    46     0     0     0
SMALL
USER_CHARGES
3-[[(E)-3-(2,3-dihydrobenzofuran-5-yl)prop-2-enoyl]amino]naphthalene-2-carboxylic acid
@<TRIPOS>ATOM
      1 C1         -3.5391    6.0201    0.8552 C.ar      1 <0>        -0.1386
      2 C2         -4.6134    5.2941    1.3671 C.ar      1 <0>        -0.1211
      3 C3         -4.6505    3.9368    1.2738 C.ar      1 <0>        -0.1094
      4 C4         -3.5922    3.2516    0.6516 C.ar      1 <0>        -0.0278
      5 C5         -3.6038    1.8514    0.5411 C.ar      1 <0>        -0.1419
      6 C6         -2.5653    1.2062   -0.0666 C.ar      1 <0>         0.1886
      7 C7         -1.4722    1.9334   -0.5890 C.ar      1 <0>        -0.1361
      8 C8         -1.4362    3.3148   -0.4870 C.ar      1 <0>        -0.0488
      9 C9         -2.4988    3.9905    0.1300 C.ar      1 <0>        -0.0759
     10 C10        -2.4965    5.3927    0.2462 C.ar      1 <0>        -0.0910
     11 C11        -0.3604    1.2177   -1.2411 C.2       1 <0>         0.4969
     12 O1         -0.3418    0.0028   -1.2494 O.co2     1 <0>        -0.6322
     13 N1         -2.5837   -0.1828   -0.1731 N.am      1 <0>        -0.6412
     14 C12        -3.7509   -0.8283   -0.3669 C.2       1 <0>         0.5403
     15 O2         -4.7747   -0.1945   -0.5453 O.2       1 <0>        -0.5437
     16 C13        -3.7873   -2.2899   -0.3628 C.2       1 <0>        -0.1947
     17 C14        -4.9564   -2.9366   -0.5569 C.2       1 <0>        -0.0267
     18 C15        -4.9930   -4.4060   -0.5527 C.ar      1 <0>        -0.0947
     19 C16        -3.8183   -5.1411   -0.3538 C.ar      1 <0>        -0.0651
     20 C17        -3.8557   -6.5148   -0.3481 C.ar      1 <0>        -0.1369
     21 C18        -5.0600   -7.1910   -0.5528 C.ar      1 <0>         0.1112
     22 C19        -6.2256   -6.4556   -0.7496 C.ar      1 <0>        -0.1802
     23 C20        -6.2024   -5.0831   -0.7535 C.ar      1 <0>        -0.0468
     24 C21        -7.3550   -7.4530   -0.9240 C.3       1 <0>        -0.1095
     25 C22        -6.7124   -8.7578   -0.3970 C.3       1 <0>         0.0510
     26 O3         -5.3084   -8.5276   -0.6020 O.3       1 <0>        -0.3042
     27 H1         -3.5344    7.0965    0.9428 H         1 <0>         0.1162
     28 H2         -5.4285    5.8167    1.8455 H         1 <0>         0.1156
     29 H3         -5.4899    3.3885    1.6753 H         1 <0>         0.1209
     30 H4         -4.4343    1.2853    0.9364 H         1 <0>         0.1342
     31 H5         -0.5975    3.8676   -0.8836 H         1 <0>         0.1413
     32 H6         -1.6713    5.9682   -0.1463 H         1 <0>         0.1245
     33 H7         -1.7566   -0.6852   -0.1077 H         1 <0>         0.4275
     34 H8         -2.8789   -2.8522   -0.2044 H         1 <0>         0.1325
     35 H9         -5.8648   -2.3742   -0.7152 H         1 <0>         0.1364
     36 H10        -2.8809   -4.6272   -0.2002 H         1 <0>         0.1413
     37 H11        -2.9464   -7.0754   -0.1891 H         1 <0>         0.1325
     38 H12        -7.1147   -4.5268   -0.9106 H         1 <0>         0.1306
     39 H13        -8.2187   -7.1729   -0.3210 H         1 <0>         0.0922
     40 H14        -7.6303   -7.5501   -1.9741 H         1 <0>         0.0912
     41 H15        -6.9305   -8.8952    0.6621 H         1 <0>         0.0776
     42 H16        -7.0514   -9.6165   -0.9766 H         1 <0>         0.1065
     43 O4          0.6322    1.9108   -1.8328 O.co2     1 <0>        -0.7427
@<TRIPOS>BOND
     1    1   10 ar
     2    1    2 ar
     3    1   27 1
     4    2    3 ar
     5    2   28 1
     6    3    4 ar
     7    3   29 1
     8    4    9 ar
     9    4    5 ar
    10    5    6 ar
    11    5   30 1
    12    6    7 ar
    13    6   13 1
    14    7    8 ar
    15    7   11 1
    16    8    9 ar
    17    8   31 1
    18    9   10 ar
    19   10   32 1
    20   11   12 2
    21   11   43 1
    22   13   14 am
    23   13   33 1
    24   14   15 2
    25   14   16 1
    26   16   17 2
    27   16   34 1
    28   17   18 1
    29   17   35 1
    30   18   23 ar
    31   18   19 ar
    32   19   20 ar
    33   19   36 1
    34   20   21 ar
    35   20   37 1
    36   21   26 1
    37   21   22 ar
    38   22   23 ar
    39   22   24 1
    40   23   38 1
    41   24   25 1
    42   24   39 1
    43   24   40 1
    44   25   26 1
    45   25   41 1
    46   25   42 1
@<TRIPOS>MOLECULE
ZINC05061455
   41    42     0     0     0
SMALL
USER_CHARGES
1-(4-tert-butylphenyl)-3-(2-hydroxyphenyl)propane-1,3-dione
@<TRIPOS>ATOM
      1 C1          1.2027    6.5047    4.5776 C.3       1 <0>        -0.1338
      2 C2         -0.0431    5.8616    3.9650 C.3       1 <0>        -0.0311
      3 C3         -0.0601    6.1179    2.4567 C.3       1 <0>        -0.1354
      4 C4         -1.2954    6.4695    4.5998 C.3       1 <0>        -0.1336
      5 C5         -0.0199    4.3768    4.2221 C.ar      1 <0>        -0.0708
      6 C6         -0.0017    3.9035    5.5225 C.ar      1 <0>        -0.1978
      7 C7          0.0197    2.5464    5.7658 C.ar      1 <0>        -0.0727
      8 C8          0.0224    1.6477    4.6945 C.ar      1 <0>        -0.2103
      9 C9          0.0092    2.1339    3.3833 C.ar      1 <0>        -0.3980
     10 C10        -0.0173    3.4937    3.1564 C.ar      1 <0>        -0.1787
     11 C11         0.0450    0.1977    4.9454 C.2       1 <0>         0.3964
     12 O1          0.0614   -0.2204    6.0835 O.3       1 <0>        -0.5843
     13 C12         0.0478   -0.7674    3.7880 C.2       1 <0>        -0.4631
     14 C13         0.0251    0.0019    2.4924 C.2       1 <0>         0.1509
     15 O2          0.0082    1.2147    2.5073 O.2       1 <0>        -0.0961
     16 C14         0.0232   -0.7163    1.2123 C.ar      1 <0>        -0.1519
     17 C15         0.0421   -2.1162    1.1895 C.ar      1 <0>        -0.0566
     18 C16         0.0398   -2.7827   -0.0152 C.ar      1 <0>        -0.1802
     19 C17         0.0189   -2.0749   -1.2070 C.ar      1 <0>        -0.0865
     20 C18        -0.0057   -0.6946   -1.2007 C.ar      1 <0>        -0.2314
     21 C19         0.0021   -0.0041    0.0020 C.ar      1 <0>         0.1783
     22 O3         -0.0163    1.3518    0.0095 O.3       1 <0>        -0.4827
     23 H1          1.2149    6.3204    5.6620 H         1 <0>         0.0524
     24 H2          1.1858    7.5885    4.3900 H         1 <0>         0.0470
     25 H3          2.1031    6.0676    4.1212 H         1 <0>         0.0525
     26 H4         -0.9558    5.6555    2.0164 H         1 <0>         0.0570
     27 H5          0.8403    5.6808    2.0004 H         1 <0>         0.0571
     28 H6         -0.0770    7.2016    2.2692 H         1 <0>         0.0442
     29 H7         -2.1911    6.0072    4.1594 H         1 <0>         0.0525
     30 H8         -1.3124    7.5533    4.4123 H         1 <0>         0.0471
     31 H9         -1.2832    6.2852    5.6842 H         1 <0>         0.0524
     32 H10        -0.0038    4.5989    6.3488 H         1 <0>         0.0898
     33 H11         0.0338    2.1786    6.7812 H         1 <0>         0.0969
     34 H12         0.0161    1.4460    2.5506 H         1 <0>         0.4004
     35 H13        -0.0316    3.8707    2.1444 H         1 <0>         0.0995
     36 H14         0.0647   -1.8512    3.9756 H         1 <0>         0.1254
     37 H15         0.0581   -2.6721    2.1153 H         1 <0>         0.1305
     38 H16         0.0541   -3.8625   -0.0318 H         1 <0>         0.1140
     39 H17         0.0169   -2.6071   -2.1467 H         1 <0>         0.1132
     40 H18        -0.0268   -0.1516   -2.1340 H         1 <0>         0.1191
     41 H19        -0.0328    1.9069   -0.9400 H         1 <0>         0.4184
@<TRIPOS>BOND
     1    1    2 1
     2    1   23 1
     3    1   24 1
     4    1   25 1
     5    2    3 1
     6    2    4 1
     7    2    5 1
     8    3   26 1
     9    3   27 1
    10    3   28 1
    11    4   29 1
    12    4   30 1
    13    4   31 1
    14    5   10 ar
    15    5    6 ar
    16    6    7 ar
    17    6   32 1
    18    7    8 ar
    19    7   33 1
    20    8    9 ar
    21    8   11 1
    22    9   10 ar
    23    9   34 1
    24   10   35 1
    25   11   13 2
    26   11   12 1
    27   13   36 1
    28   13   14 1
    29   14   16 1
    30   14   15 2
    31   16   21 ar
    32   16   17 ar
    33   17   18 ar
    34   17   37 1
    35   18   19 ar
    36   18   38 1
    37   19   20 ar
    38   19   39 1
    39   20   21 ar
    40   20   40 1
    41   21   22 1
    42   22   41 1
@<TRIPOS>MOLECULE
ZINC13255963
   49    50     0     0     0
SMALL
USER_CHARGES

@<TRIPOS>ATOM
      1 C1          0.4737    2.0098    0.1083 C.3       1 <0>        -0.1235
      2 C2          0.5117    0.4860   -0.0231 C.3       1 <0>        -0.0900
      3 C3          1.1497   -0.1182    1.2295 C.3       1 <0>        -0.1126
      4 C4          0.3368    0.2615    2.4403 C.2       1 <0>         0.4911
      5 O1         -0.6552    0.9478    2.3138 O.2       1 <0>        -0.4361
      6 N1          0.7122   -0.1615    3.6636 N.am      1 <0>        -0.6805
      7 C5          0.0335    0.2930    4.7998 C.ar      1 <0>         0.1713
      8 C6         -1.0958    1.0900    4.6635 C.ar      1 <0>        -0.1700
      9 C7         -1.7632    1.5370    5.7867 C.ar      1 <0>        -0.1002
     10 C8         -1.3081    1.1922    7.0464 C.ar      1 <0>        -0.1564
     11 C9         -0.1840    0.3994    7.1854 C.ar      1 <0>        -0.1023
     12 C10         0.4843   -0.0565    6.0657 C.ar      1 <0>        -0.1241
     13 C11         1.7052   -0.9266    6.2181 C.3       1 <0>        -0.0271
     14 C12         2.0031   -1.1316    7.7047 C.3       1 <0>        -0.1379
     15 C13         1.4506   -2.2829    5.5572 C.3       1 <0>        -0.1514
     16 C14         2.9015   -0.2488    5.5469 C.3       1 <0>        -0.1523
     17 C15         1.3246    0.1063   -1.2339 C.ar      1 <0>        -0.0141
     18 C16         2.4521   -0.6805   -1.0904 C.ar      1 <0>        -0.1357
     19 C17         3.1978   -1.0288   -2.2011 C.ar      1 <0>        -0.1233
     20 C18         2.8157   -0.5906   -3.4553 C.ar      1 <0>        -0.1445
     21 C19         1.6878    0.1955   -3.5988 C.ar      1 <0>        -0.1203
     22 C20         0.9397    0.5402   -2.4887 C.ar      1 <0>        -0.1001
     23 C21        -0.8922   -0.0403   -0.1754 C.2       1 <0>         0.5057
     24 O2         -1.0952   -1.0601   -0.8121 O.co2     1 <0>        -0.6987
     25 O3         -1.8249    0.5537    0.3380 O.co2     1 <0>        -0.6572
     26 H1          1.4891    2.3905    0.2185 H         1 <0>         0.0275
     27 H2          0.0192    2.4402   -0.7840 H         1 <0>         0.0458
     28 H3         -0.1143    2.2845    0.9841 H         1 <0>         0.0875
     29 H4          1.1768   -1.2038    1.1359 H         1 <0>         0.0908
     30 H5          2.1652    0.2625    1.3396 H         1 <0>         0.0840
     31 H6          1.4527   -0.7810    3.7565 H         1 <0>         0.4069
     32 H7         -1.4513    1.3602    3.6801 H         1 <0>         0.1901
     33 H8         -2.6414    2.1568    5.6814 H         1 <0>         0.1194
     34 H9         -1.8317    1.5434    7.9233 H         1 <0>         0.1135
     35 H10         0.1691    0.1321    8.1705 H         1 <0>         0.1223
     36 H11         1.1509   -1.6145    8.1828 H         1 <0>         0.0585
     37 H12         2.8862   -1.7610    7.8149 H         1 <0>         0.0559
     38 H13         2.1845   -0.1654    8.1755 H         1 <0>         0.0582
     39 H14         1.1330   -2.1305    4.5257 H         1 <0>         0.0586
     40 H15         2.3676   -2.8720    5.5718 H         1 <0>         0.0612
     41 H16         0.6699   -2.8123    6.1033 H         1 <0>         0.0615
     42 H17         3.1429    0.6716    6.0785 H         1 <0>         0.0599
     43 H18         3.7606   -0.9193    5.5728 H         1 <0>         0.0601
     44 H19         2.6534   -0.0160    4.5114 H         1 <0>         0.0610
     45 H20         2.7506   -1.0229   -0.1106 H         1 <0>         0.1156
     46 H21         4.0791   -1.6430   -2.0889 H         1 <0>         0.1120
     47 H22         3.3987   -0.8621   -4.3229 H         1 <0>         0.1111
     48 H23         1.3895    0.5381   -4.5786 H         1 <0>         0.1134
     49 H24         0.0563    1.1512   -2.6013 H         1 <0>         0.1152
@<TRIPOS>BOND
     1    1    2 1
     2    1   26 1
     3    1   27 1
     4    1   28 1
     5    2    3 1
     6    2   17 1
     7    2   23 1
     8    3    4 1
     9    3   29 1
    10    3   30 1
    11    4    5 2
    12    4    6 am
    13    6    7 1
    14    6   31 1
    15    7   12 ar
    16    7    8 ar
    17    8    9 ar
    18    8   32 1
    19    9   10 ar
    20    9   33 1
    21   10   11 ar
    22   10   34 1
    23   11   12 ar
    24   11   35 1
    25   12   13 1
    26   13   14 1
    27   13   15 1
    28   13   16 1
    29   14   36 1
    30   14   37 1
    31   14   38 1
    32   15   39 1
    33   15   40 1
    34   15   41 1
    35   16   42 1
    36   16   43 1
    37   16   44 1
    38   17   22 ar
    39   17   18 ar
    40   18   19 ar
    41   18   45 1
    42   19   20 ar
    43   19   46 1
    44   20   21 ar
    45   20   47 1
    46   21   22 ar
    47   21   48 1
    48   22   49 1
    49   23   24 2
    50   23   25 1
@<TRIPOS>MOLECULE
ZINC44294822
   49    49     0     0     0
SMALL
USER_CHARGES

@<TRIPOS>ATOM
      1 C1         -0.0187    1.5258    0.0104 C.3       1 <0>        -0.1860
      2 C2          0.0021   -0.0041    0.0020 C.3       1 <0>         0.1357
      3 C3          0.7421   -0.5109    1.2415 C.3       1 <0>        -0.1832
      4 C4         -1.4333   -0.5336    0.0129 C.3       1 <0>        -0.1371
      5 O1          0.6709   -0.4649   -1.1737 O.3       1 <0>        -0.3664
      6 C5          1.9522   -0.0848   -1.3367 C.2       1 <0>         0.6477
      7 O2          2.4879    0.6189   -0.5034 O.2       1 <0>        -0.5706
      8 N1          2.6407   -0.4850   -2.4240 N.am      1 <0>        -0.6731
      9 C6          4.0349   -0.0714   -2.6014 C.3       1 <0>         0.0941
     10 H1          4.5261   -0.0235   -1.6295 H         1 <0>         0.0883
     11 C7          4.7587   -1.0856   -3.4893 C.3       1 <0>        -0.1077
     12 C8          4.8250   -2.4355   -2.7721 C.3       1 <0>        -0.1054
     13 C9          5.6916   -2.3047   -1.5178 C.3       1 <0>        -0.1186
     14 C10         5.4455   -3.5043   -0.6009 C.3       1 <0>        -0.1228
     15 C11         3.9439   -3.7853   -0.5194 C.3       1 <0>        -0.1294
     16 C12         3.6389   -5.1271   -1.1885 C.3       1 <0>        -0.1155
     17 C13         3.6887   -4.9608   -2.7087 C.3       1 <0>        -0.1287
     18 C14         5.1466   -4.8816   -3.1656 C.3       1 <0>        -0.1251
     19 C15         5.4365   -3.4806   -3.7076 C.3       1 <0>        -0.1136
     20 C16         4.0770    1.2868   -3.2529 C.2       1 <0>         0.4891
     21 O3          5.0007    2.0472   -3.0182 O.co2     1 <0>        -0.6939
     22 O4          3.1873    1.6254   -4.0147 O.co2     1 <0>        -0.6905
     23 H2          1.0039    1.9031    0.0027 H         1 <0>         0.0914
     24 H3         -0.5459    1.8868   -0.8726 H         1 <0>         0.0580
     25 H4         -0.5289    1.8773    0.9072 H         1 <0>         0.0622
     26 H5          0.2319   -0.1594    2.1383 H         1 <0>         0.0627
     27 H6          0.7568   -1.6008    1.2356 H         1 <0>         0.0548
     28 H7          1.7647   -0.1336    1.2338 H         1 <0>         0.0902
     29 H8         -1.9605   -0.1726   -0.8702 H         1 <0>         0.0644
     30 H9         -1.4185   -1.6235    0.0069 H         1 <0>         0.0625
     31 H10        -1.9435   -0.1821    0.9097 H         1 <0>         0.0743
     32 H11         2.2131   -1.0467   -3.0892 H         1 <0>         0.3954
     33 H12         4.2163   -1.1991   -4.4279 H         1 <0>         0.0652
     34 H13         5.7696   -0.7330   -3.6941 H         1 <0>         0.0769
     35 H14         3.8195   -2.7459   -2.4883 H         1 <0>         0.0936
     36 H15         6.7430   -2.2757   -1.8040 H         1 <0>         0.0590
     37 H16         5.4328   -1.3859   -0.9916 H         1 <0>         0.0685
     38 H17         5.9576   -4.3791   -1.0018 H         1 <0>         0.0680
     39 H18         5.8285   -3.2844    0.3957 H         1 <0>         0.0529
     40 H19         3.6375   -3.8226    0.5259 H         1 <0>         0.0524
     41 H20         3.3977   -2.9922   -1.0300 H         1 <0>         0.0766
     42 H21         4.3797   -5.8643   -0.8790 H         1 <0>         0.0586
     43 H22         2.6454   -5.4634   -0.8921 H         1 <0>         0.0546
     44 H23         3.2050   -5.8144   -3.1836 H         1 <0>         0.0534
     45 H24         3.1692   -4.0452   -2.9913 H         1 <0>         0.0748
     46 H25         5.8038   -5.0873   -2.3207 H         1 <0>         0.0706
     47 H26         5.3220   -5.6179   -3.9499 H         1 <0>         0.0528
     48 H27         5.0007   -3.3780   -4.7014 H         1 <0>         0.0593
     49 H28         6.5144   -3.3295   -3.7662 H         1 <0>         0.0596
@<TRIPOS>BOND
     1    1    2 1
     2    1   23 1
     3    1   24 1
     4    1   25 1
     5    2    3 1
     6    2    4 1
     7    2    5 1
     8    3   26 1
     9    3   27 1
    10    3   28 1
    11    4   29 1
    12    4   30 1
    13    4   31 1
    14    5    6 1
    15    6    7 2
    16    6    8 am
    17    8    9 1
    18    8   32 1
    19    9   10 1
    20    9   11 1
    21    9   20 1
    22   11   12 1
    23   11   33 1
    24   11   34 1
    25   12   19 1
    26   12   13 1
    27   12   35 1
    28   13   14 1
    29   13   36 1
    30   13   37 1
    31   14   15 1
    32   14   38 1
    33   14   39 1
    34   15   16 1
    35   15   40 1
    36   15   41 1
    37   16   17 1
    38   16   42 1
    39   16   43 1
    40   17   18 1
    41   17   44 1
    42   17   45 1
    43   18   19 1
    44   18   46 1
    45   18   47 1
    46   19   48 1
    47   19   49 1
    48   20   21 2
    49   20   22 1
@<TRIPOS>MOLECULE
ZINC13183531
   47    49     0     0     0
SMALL
USER_CHARGES
3-[[4-(4-methyl-1-piperidyl)phenyl]sulfamoyl]benzoic acid
@<TRIPOS>ATOM
      1 C1          5.5427   -3.2677    7.0898 C.3       1 <0>        -0.1442
      2 C2          4.6411   -2.4620    6.1523 C.3       1 <0>        -0.0996
      3 C3          5.3830   -2.1851    4.8417 C.3       1 <0>        -0.1103
      4 C4          4.4554   -1.4322    3.8854 C.3       1 <0>         0.0460
      5 N1          3.2557   -2.2390    3.6285 N.pl3     1 <0>        -0.4872
      6 C5          2.5015   -2.4779    4.8657 C.3       1 <0>         0.0519
      7 C6          3.3708   -3.2620    5.8513 C.3       1 <0>        -0.1110
      8 C7          2.4468   -1.6397    2.6556 C.ar      1 <0>         0.1227
      9 C8          1.2600   -2.2479    2.2686 C.ar      1 <0>        -0.1322
     10 C9          0.4619   -1.6566    1.3092 C.ar      1 <0>        -0.0764
     11 C10         0.8460   -0.4535    0.7319 C.ar      1 <0>         0.0946
     12 C11         2.0356    0.1518    1.1148 C.ar      1 <0>        -0.0796
     13 C12         2.8311   -0.4369    2.0780 C.ar      1 <0>        -0.1634
     14 N2          0.0367    0.1463   -0.2403 N.pl3     1 <0>        -1.0613
     15 S1         -1.3589    0.9183    0.2054 S.o2      1 <0>         2.6906
     16 O1         -1.9189    1.4627   -0.9817 O.2       1 <0>        -0.9641
     17 O2         -2.0726    0.0170    1.0406 O.2       1 <0>        -0.9494
     18 C13        -0.8979    2.2850    1.2174 C.ar      1 <0>        -0.6894
     19 C14        -0.5367    3.4862    0.6327 C.ar      1 <0>        -0.0281
     20 C15        -0.1733    4.5643    1.4198 C.ar      1 <0>        -0.1582
     21 C16        -0.1688    4.4484    2.7946 C.ar      1 <0>        -0.0221
     22 C17        -0.5320    3.2395    3.3911 C.ar      1 <0>        -0.1329
     23 C18        -0.9031    2.1570    2.5907 C.ar      1 <0>         0.0183
     24 C19        -0.5299    3.1080    4.8625 C.2       1 <0>         0.4900
     25 O3         -0.8464    2.0550    5.3786 O.co2     1 <0>        -0.6232
     26 H1          6.4493   -2.6999    7.2990 H         1 <0>         0.0534
     27 H2          5.0138   -3.4644    8.0224 H         1 <0>         0.0546
     28 H3          5.8073   -4.2130    6.6159 H         1 <0>         0.0538
     29 H4          4.3742   -1.5175    6.6263 H         1 <0>         0.0714
     30 H5          5.6849   -3.1291    4.3880 H         1 <0>         0.0708
     31 H6          6.2661   -1.5792    5.0445 H         1 <0>         0.0693
     32 H7          4.9759   -1.2460    2.9459 H         1 <0>         0.0820
     33 H8          4.1649   -0.4822    4.3341 H         1 <0>         0.0498
     34 H9          2.2202   -1.5230    5.3096 H         1 <0>         0.0521
     35 H10         1.6028   -3.0512    4.6382 H         1 <0>         0.0844
     36 H11         3.6410   -4.2230    5.4135 H         1 <0>         0.0708
     37 H12         2.8162   -3.4256    6.7753 H         1 <0>         0.0717
     38 H13         0.9609   -3.1833    2.7181 H         1 <0>         0.1309
     39 H14        -0.4611   -2.1296    1.0082 H         1 <0>         0.1356
     40 H15         2.3365    1.0853    0.6626 H         1 <0>         0.1278
     41 H16         3.7542    0.0361    2.3790 H         1 <0>         0.1311
     42 H17         0.2934    0.1097   -1.1750 H         1 <0>         0.4202
     43 H18        -0.5389    3.5825   -0.4430 H         1 <0>         0.1306
     44 H19         0.1071    5.4990    0.9571 H         1 <0>         0.1274
     45 H20         0.1147    5.2909    3.4079 H         1 <0>         0.1386
     46 H21        -1.1894    1.2204    3.0459 H         1 <0>         0.1438
     47 O4         -0.1770    4.1560    5.6318 O.co2     1 <0>        -0.7514
@<TRIPOS>BOND
     1    1    2 1
     2    1   26 1
     3    1   27 1
     4    1   28 1
     5    2    7 1
     6    2    3 1
     7    2   29 1
     8    3    4 1
     9    3   30 1
    10    3   31 1
    11    4    5 1
    12    4   32 1
    13    4   33 1
    14    5    6 1
    15    5    8 1
    16    6    7 1
    17    6   34 1
    18    6   35 1
    19    7   36 1
    20    7   37 1
    21    8   13 ar
    22    8    9 ar
    23    9   10 ar
    24    9   38 1
    25   10   11 ar
    26   10   39 1
    27   11   12 ar
    28   11   14 1
    29   12   13 ar
    30   12   40 1
    31   13   41 1
    32   14   15 1
    33   14   42 1
    34   15   16 2
    35   15   17 2
    36   15   18 1
    37   18   23 ar
    38   18   19 ar
    39   19   20 ar
    40   19   43 1
    41   20   21 ar
    42   20   44 1
    43   21   22 ar
    44   21   45 1
    45   22   23 ar
    46   22   24 1
    47   23   46 1
    48   24   25 2
    49   24   47 1
@<TRIPOS>MOLECULE
ZINC28380084
   36    38     0     0     0
SMALL
USER_CHARGES
2-ethoxy-4-[(E)-[3-sulfanyl-5-(2-thienyl)-1,2,4-triazol-4-yl]iminomethyl]phenol
@<TRIPOS>ATOM
      1 C1          5.7704    2.3830   -7.6100 C.3       1 <0>        -0.1516
      2 C2          5.3384    2.8109   -6.2060 C.3       1 <0>         0.0477
      3 O1          6.2406    2.2636   -5.2425 O.3       1 <0>        -0.3052
      4 C3          5.9971    2.5508   -3.9356 C.ar      1 <0>         0.0838
      5 C4          4.9159    3.3400   -3.5915 C.ar      1 <0>        -0.1315
      6 C5          4.6686    3.6330   -2.2477 C.ar      1 <0>        -0.0634
      7 C6          5.5188    3.1310   -1.2589 C.ar      1 <0>        -0.0550
      8 C7          6.5921    2.3397   -1.6095 C.ar      1 <0>        -0.1873
      9 C8          6.8373    2.0489   -2.9439 C.ar      1 <0>         0.1505
     10 O2          7.8999    1.2730   -3.2844 O.3       1 <0>        -0.4980
     11 C9          3.5174    4.4745   -1.8747 C.2       1 <0>         0.1848
     12 N1          3.2892    4.7456   -0.6260 N.2       1 <0>        -0.2311
     13 N2          2.1950    5.5455   -0.2715 N.pl3     1 <0>        -0.3634
     14 C10         0.9138    5.1254    0.0193 C.2       1 <0>         0.1852
     15 N3          0.2122    6.2014    0.3047 N.2       1 <0>        -0.2519
     16 N4          0.9523    7.2473    0.2086 N.2       1 <0>        -0.3269
     17 C11         2.1722    6.9094   -0.1436 C.2       1 <0>         0.3859
     18 S1          3.5283    8.0056   -0.3968 S.3       1 <0>        -0.7800
     19 C12         0.4260    3.7375    0.0170 C.2       1 <0>        -0.0436
     20 C13        -0.8661    3.2748    0.0265 C.2       1 <0>        -0.1443
     21 C14        -1.0806    1.9149    0.0166 C.2       1 <0>        -0.1450
     22 C15        -0.0126    1.0758    0.0080 C.2       1 <0>        -0.1961
     23 S2          1.3607    2.2164    0.0010 S.3       1 <0>         0.0693
     24 H1          5.0759    2.8043   -8.3517 H         1 <0>         0.0781
     25 H2          5.7585    1.2852   -7.6786 H         1 <0>         0.0655
     26 H3          6.7874    2.7518   -7.8090 H         1 <0>         0.0662
     27 H4          5.3503    3.9087   -6.1374 H         1 <0>         0.0639
     28 H5          4.3214    2.4421   -6.0069 H         1 <0>         0.0623
     29 H6          4.2635    3.7290   -4.3592 H         1 <0>         0.1397
     30 H7          5.3328    3.3593   -0.2198 H         1 <0>         0.1410
     31 H8          7.2459    1.9486   -0.8440 H         1 <0>         0.1393
     32 H9          8.5641    0.8761   -2.5025 H         1 <0>         0.4311
     33 H10         2.8517    4.8728   -2.6545 H         1 <0>         0.1204
     34 H11        -1.6978    3.9636    0.0371 H         1 <0>         0.1415
     35 H12        -2.0858    1.5201    0.0190 H         1 <0>         0.1342
     36 H13         0.0021   -0.0041    0.0020 H         1 <0>         0.1841
@<TRIPOS>BOND
     1    1    2 1
     2    1   24 1
     3    1   25 1
     4    1   26 1
     5    2    3 1
     6    2   27 1
     7    2   28 1
     8    3    4 1
     9    4    9 ar
    10    4    5 ar
    11    5    6 ar
    12    5   29 1
    13    6    7 ar
    14    6   11 1
    15    7    8 ar
    16    7   30 1
    17    8    9 ar
    18    8   31 1
    19    9   10 1
    20   10   32 1
    21   11   12 2
    22   11   33 1
    23   12   13 1
    24   13   17 1
    25   13   14 1
    26   14   15 2
    27   14   19 1
    28   15   16 1
    29   16   17 2
    30   17   18 1
    31   19   23 1
    32   19   20 2
    33   20   21 1
    34   20   34 1
    35   21   22 2
    36   21   35 1
    37   22   23 1
    38   22   36 1
@<TRIPOS>MOLECULE
ZINC39997005
   39    40     0     0     0
SMALL
USER_CHARGES

@<TRIPOS>ATOM
      1 C1         -0.1749    1.3253   -2.4166 C.3       1 <0>        -0.1513
      2 C2         -0.1377   -0.1834   -2.1652 C.3       1 <0>        -0.1195
      3 C3         -1.5548   -0.6894   -1.8879 C.3       1 <0>        -0.1027
      4 C4         -1.5176   -2.1981   -1.6366 C.3       1 <0>        -0.1041
      5 S1         -3.1977   -2.7980   -1.3078 S.3       1 <0>        -0.0112
      6 C5         -2.9885   -4.5272   -1.0422 C.2       1 <0>        -0.0636
      7 N1         -1.8856   -5.2647   -1.0598 N.2       1 <0>        -0.2433
      8 N2         -1.9104   -6.5074   -0.8459 N.2       1 <0>        -0.3420
      9 C6         -3.0459   -7.1519   -0.5899 C.2       1 <0>         0.3649
     10 S2         -4.2028   -5.7874   -0.6642 S.3       1 <0>        -0.0643
     11 N3         -3.2645   -8.4689   -0.3383 N.2       1 <0>        -0.6021
     12 C7         -2.2559   -9.3117   -0.3253 C.2       1 <0>         0.4665
     13 O1         -0.9998   -8.8675   -0.5625 O.3       1 <0>        -0.6271
     14 C8         -2.4923  -10.7363   -0.0532 C.2       1 <0>        -0.0278
     15 C9         -1.4351  -11.6197   -0.0396 C.2       1 <0>         0.0069
     16 C10        -1.6849  -13.0594    0.0638 C.ar      1 <0>        -0.0843
     17 C11        -2.8204  -13.6217   -0.5367 C.ar      1 <0>        -0.0810
     18 C12        -3.0485  -14.9700   -0.4368 C.ar      1 <0>        -0.1426
     19 C13        -2.1568  -15.7795    0.2587 C.ar      1 <0>         0.1105
     20 C14        -1.0290  -15.2276    0.8570 C.ar      1 <0>        -0.1481
     21 C15        -0.7866  -13.8817    0.7588 C.ar      1 <0>        -0.0754
     22 O2         -2.3883  -17.1134    0.3545 O.3       1 <0>        -0.4994
     23 C16        -3.8215  -11.2063    0.1977 C.1       1 <0>         0.2744
     24 N4         -4.8759  -11.5792    0.3968 N.1       1 <0>        -0.4300
     25 H1          0.8346    1.6858   -2.6141 H         1 <0>         0.0538
     26 H2         -0.8104    1.5348   -3.2771 H         1 <0>         0.0540
     27 H3         -0.5755    1.8303   -1.5376 H         1 <0>         0.0540
     28 H4          0.2629   -0.6884   -3.0442 H         1 <0>         0.0650
     29 H5          0.4977   -0.3928   -1.3047 H         1 <0>         0.0650
     30 H6         -1.9554   -0.1844   -1.0090 H         1 <0>         0.0715
     31 H7         -2.1902   -0.4799   -2.7484 H         1 <0>         0.0715
     32 H8         -1.1170   -2.7031   -2.5156 H         1 <0>         0.0897
     33 H9         -0.8821   -2.4075   -0.7761 H         1 <0>         0.0898
     34 H10        -0.4222  -11.2508   -0.1051 H         1 <0>         0.1635
     35 H11        -3.5139  -12.9940   -1.0765 H         1 <0>         0.1300
     36 H12        -3.9227  -15.4043   -0.8990 H         1 <0>         0.1303
     37 H13        -0.3405  -15.8612    1.3964 H         1 <0>         0.1316
     38 H14         0.0920  -13.4550    1.2197 H         1 <0>         0.1370
     39 H15        -1.9965  -17.6329   -0.3608 H         1 <0>         0.3898
@<TRIPOS>BOND
     1    1    2 1
     2    1   25 1
     3    1   26 1
     4    1   27 1
     5    2    3 1
     6    2   28 1
     7    2   29 1
     8    3    4 1
     9    3   30 1
    10    3   31 1
    11    4    5 1
    12    4   32 1
    13    4   33 1
    14    5    6 1
    15    6   10 1
    16    6    7 2
    17    7    8 1
    18    8    9 2
    19    9   10 1
    20    9   11 1
    21   11   12 2
    22   12   13 1
    23   12   14 1
    24   14   15 2
    25   14   23 1
    26   15   16 1
    27   15   34 1
    28   16   21 ar
    29   16   17 ar
    30   17   18 ar
    31   17   35 1
    32   18   19 ar
    33   18   36 1
    34   19   20 ar
    35   19   22 1
    36   20   21 ar
    37   20   37 1
    38   21   38 1
    39   22   39 1
    40   23   24 3
@<TRIPOS>MOLECULE
ZINC54892626
   43    44     0     0     0
SMALL
USER_CHARGES

@<TRIPOS>ATOM
      1 C1         -0.0187    1.5258    0.0104 C.3       1 <0>        -0.1525
      2 C2          0.0021   -0.0041    0.0020 C.3       1 <0>         0.0548
      3 O1         -1.3386   -0.4987    0.0122 O.3       1 <0>        -0.3168
      4 C3         -1.4984   -1.8491    0.0064 C.ar      1 <0>         0.1134
      5 C4         -0.3837   -2.6786   -0.0029 C.ar      1 <0>        -0.1901
      6 C5         -0.5350   -4.0516   -0.0093 C.ar      1 <0>        -0.1152
      7 C6         -1.8019   -4.6124   -0.0063 C.ar      1 <0>         0.1067
      8 C7         -2.9321   -3.7817    0.0036 C.ar      1 <0>        -0.0337
      9 C8         -2.7695   -2.3927    0.0157 C.ar      1 <0>        -0.1199
     10 C9         -4.2807   -4.3681    0.0063 C.2       1 <0>         0.1151
     11 N1         -4.4282   -5.6634   -0.0005 N.2       1 <0>        -0.4011
     12 C10        -5.6830   -6.2090    0.0020 C.ar      1 <0>        -0.0588
     13 C11        -6.6638   -5.7055    0.8602 C.ar      1 <0>        -0.0888
     14 C12        -7.9263   -6.2575    0.8600 C.ar      1 <0>        -0.1795
     15 C13        -8.2246   -7.3147    0.0075 C.ar      1 <0>         0.2944
     16 C14        -7.2508   -7.8188   -0.8477 C.ar      1 <0>        -0.2537
     17 C15        -5.9881   -7.2673   -0.8577 C.ar      1 <0>        -0.0275
     18 N2         -9.5047   -7.8718    0.0104 N.2       1 <0>        -1.0959
     19 S1         -9.8621   -9.1309   -1.0041 S.o2      1 <0>         2.5282
     20 O2         -9.7279   -8.5920   -2.3121 O.2       1 <0>        -1.0262
     21 O3         -9.0264  -10.1950   -0.5698 O.2       1 <0>        -1.0258
     22 C16       -11.6004   -9.5235   -0.6654 C.3       1 <0>        -0.6028
     23 C17       -12.0437  -10.6858   -1.5562 C.3       1 <0>        -0.1428
     24 O4         -1.9491   -5.9624   -0.0134 O.3       1 <0>        -0.4688
     25 H1          1.0039    1.9031    0.0027 H         1 <0>         0.0762
     26 H2         -0.5459    1.8868   -0.8726 H         1 <0>         0.0662
     27 H3         -0.5289    1.8773    0.9072 H         1 <0>         0.0659
     28 H4          0.5123   -0.3556   -0.8948 H         1 <0>         0.0608
     29 H5          0.5293   -0.3651    0.8851 H         1 <0>         0.0605
     30 H6          0.6065   -2.2474   -0.0056 H         1 <0>         0.1275
     31 H7          0.3365   -4.6895   -0.0169 H         1 <0>         0.1300
     32 H8         -3.6346   -1.7463    0.0277 H         1 <0>         0.1373
     33 H9         -5.1488   -3.7258    0.0139 H         1 <0>         0.1015
     34 H10        -6.4327   -4.8848    1.5231 H         1 <0>         0.1062
     35 H11        -8.6850   -5.8688    1.5232 H         1 <0>         0.1148
     36 H12        -7.4858   -8.6405   -1.5080 H         1 <0>         0.1070
     37 H13        -5.2337   -7.6559   -1.5258 H         1 <0>         0.1107
     38 H14       -11.7119   -9.8052    0.3817 H         1 <0>         0.1195
     39 H15       -12.2176   -8.6498   -0.8743 H         1 <0>         0.1194
     40 H16       -11.9322  -10.4041   -2.6033 H         1 <0>         0.0647
     41 H17       -11.4264  -11.5596   -1.3473 H         1 <0>         0.0648
     42 H18       -13.0882  -10.9217   -1.3527 H         1 <0>         0.0684
     43 H19        -1.9874   -6.3586    0.8679 H         1 <0>         0.3856
@<TRIPOS>BOND
     1    1    2 1
     2    1   25 1
     3    1   26 1
     4    1   27 1
     5    2    3 1
     6    2   28 1
     7    2   29 1
     8    3    4 1
     9    4    9 ar
    10    4    5 ar
    11    5    6 ar
    12    5   30 1
    13    6    7 ar
    14    6   31 1
    15    7    8 ar
    16    7   24 1
    17    8    9 ar
    18    8   10 1
    19    9   32 1
    20   10   11 2
    21   10   33 1
    22   11   12 1
    23   12   17 ar
    24   12   13 ar
    25   13   14 ar
    26   13   34 1
    27   14   15 ar
    28   14   35 1
    29   15   16 ar
    30   15   18 1
    31   16   17 ar
    32   16   36 1
    33   17   37 1
    34   18   19 1
    35   19   20 2
    36   19   21 2
    37   19   22 1
    38   22   23 1
    39   22   38 1
    40   22   39 1
    41   23   40 1
    42   23   41 1
    43   23   42 1
    44   24   43 1
@<TRIPOS>MOLECULE
ZINC63703684
   44    46     0     0     0
SMALL
USER_CHARGES

@<TRIPOS>ATOM
      1 C1         -0.0184    1.5028    0.0103 C.3       1 <0>        -0.0764
      2 C2          0.0021   -0.0041    0.0020 C.2       1 <0>         0.1111
      3 C3          0.0060   -0.7187   -1.1704 C.2       1 <0>        -0.1121
      4 S1          0.0317   -2.3888   -0.5391 S.3       1 <0>         0.1246
      5 C4          0.0348   -2.0177    1.1024 C.2       1 <0>         0.2465
      6 N1          0.0226   -0.7007    1.1175 N.2       1 <0>        -0.5025
      7 N2          0.0514   -2.8904    2.1818 N.am      1 <0>        -0.6222
      8 C5          0.0512   -2.4065    3.4397 C.2       1 <0>         0.5035
      9 O1          0.0365   -1.2086    3.6286 O.2       1 <0>        -0.4647
     10 C6          0.0691   -3.3539    4.6115 C.3       1 <0>        -0.1293
     11 C7          0.0650   -2.5529    5.9150 C.3       1 <0>        -0.0448
     12 C8         -1.2519   -1.7836    6.0367 C.3       1 <0>        -0.1524
     13 C9          0.2089   -3.5085    7.1012 C.3       1 <0>        -0.1488
     14 C10         1.2996   -3.1999    8.1288 C.3       1 <0>        -0.1776
     15 C11         1.4691   -4.3739    7.1624 C.3       1 <0>        -0.1833
     16 C12        -0.0078   -0.2406   -2.5619 C.2       1 <0>         0.1944
     17 N3         -0.0215    1.0133   -2.9582 N.2       1 <0>        -0.2585
     18 N4         -0.0304    1.0676   -4.2420 N.2       1 <0>        -0.3351
     19 C13        -0.0230   -0.1446   -4.7465 C.2       1 <0>         0.3854
     20 S2         -0.0305   -0.5641   -6.4578 S.3       1 <0>        -0.7923
     21 N5         -0.0028   -1.0213   -3.6965 N.pl3     1 <0>        -0.4875
     22 C14         0.0173   -2.4846   -3.7647 C.3       1 <0>         0.1503
     23 C15        -1.3964   -3.0063   -3.7806 C.2       1 <0>        -0.1762
     24 C16        -1.7910   -3.7996   -4.7455 C.2       1 <0>        -0.1503
     25 H1          1.0042    1.8801    0.0026 H         1 <0>         0.0743
     26 H2         -0.5455    1.8639   -0.8728 H         1 <0>         0.0959
     27 H3         -0.5286    1.8543    0.9071 H         1 <0>         0.0684
     28 H4          0.0631   -3.8485    2.0307 H         1 <0>         0.4231
     29 H5         -0.8128   -3.9934    4.5752 H         1 <0>         0.0994
     30 H6          0.9670   -3.9703    4.5666 H         1 <0>         0.0983
     31 H7          0.8978   -1.8496    5.9120 H         1 <0>         0.0807
     32 H8         -1.2548   -1.2129    6.9654 H         1 <0>         0.0554
     33 H9         -1.3544   -1.1028    5.1917 H         1 <0>         0.0763
     34 H10        -2.0846   -2.4869    6.0398 H         1 <0>         0.0493
     35 H11        -0.7199   -3.9453    7.4684 H         1 <0>         0.1055
     36 H12         1.9148   -2.3160    7.9597 H         1 <0>         0.0948
     37 H13         1.0886   -3.4334    9.1723 H         1 <0>         0.0929
     38 H14         1.3696   -5.3798    7.5702 H         1 <0>         0.0936
     39 H15         2.1958   -4.2625    6.3576 H         1 <0>         0.0941
     40 H16         0.5309   -2.7989   -4.6733 H         1 <0>         0.1080
     41 H17         0.5414   -2.8816   -2.8953 H         1 <0>         0.0794
     42 H18        -2.0842   -2.7261   -2.9965 H         1 <0>         0.1061
     43 H19        -1.1032   -4.0797   -5.5296 H         1 <0>         0.1041
     44 H20        -2.8042   -4.1734   -4.7569 H         1 <0>         0.0987
@<TRIPOS>BOND
     1    1    2 1
     2    1   25 1
     3    1   26 1
     4    1   27 1
     5    2    6 1
     6    2    3 2
     7    3    4 1
     8    3   16 1
     9    4    5 1
    10    5    6 2
    11    5    7 1
    12    7    8 am
    13    7   28 1
    14    8    9 2
    15    8   10 1
    16   10   11 1
    17   10   29 1
    18   10   30 1
    19   11   12 1
    20   11   13 1
    21   11   31 1
    22   12   32 1
    23   12   33 1
    24   12   34 1
    25   13   15 1
    26   13   14 1
    27   13   35 1
    28   14   15 1
    29   14   36 1
    30   14   37 1
    31   15   38 1
    32   15   39 1
    33   16   21 1
    34   16   17 2
    35   17   18 1
    36   18   19 2
    37   19   20 1
    38   19   21 1
    39   21   22 1
    40   22   23 1
    41   22   40 1
    42   22   41 1
    43   23   24 2
    44   23   42 1
    45   24   43 1
    46   24   44 1
@<TRIPOS>MOLECULE
ZINC05302539
   45    47     0     0     0
SMALL
USER_CHARGES
1-(cyclopropylcarbamoyl)ethyl 9-thiabicyclo[6.3.0]undeca-10,12-diene-10-carboxylate
@<TRIPOS>ATOM
      1 C1          2.0859   -6.0629    5.1481 C.3       1 <0>        -0.1670
      2 C2          0.6224   -5.6502    4.9782 C.3       1 <0>         0.0737
      3 H1          0.2381   -5.2755    5.9269 H         1 <0>         0.1151
      4 C3         -0.1889   -6.8436    4.5438 C.2       1 <0>         0.5224
      5 O1         -0.7139   -6.8545    3.4505 O.2       1 <0>        -0.5095
      6 N1         -0.3310   -7.8988    5.3701 N.am      1 <0>        -0.6977
      7 C4         -1.1197   -9.0589    4.9478 C.3       1 <0>         0.0772
      8 C5         -2.0853   -9.6658    5.9676 C.3       1 <0>        -0.1913
      9 C6         -0.7978  -10.4063    5.5973 C.3       1 <0>        -0.1860
     10 O2          0.5272   -4.6079    3.9718 O.3       1 <0>        -0.3213
     11 C7          0.6237   -3.3324    4.4001 C.2       1 <0>         0.5586
     12 O3          0.7832   -3.0985    5.5830 O.2       1 <0>        -0.4948
     13 C8          0.5365   -2.2297    3.4412 C.2       1 <0>        -0.2354
     14 C9          0.6092   -0.8714    3.6656 C.2       1 <0>        -0.0483
     15 C10         0.5165   -0.0134    2.5675 C.2       1 <0>        -0.1372
     16 C11         0.2766   -0.5781    1.3677 C.2       1 <0>        -0.1260
     17 S1          0.3073   -2.2876    1.6753 S.3       1 <0>         0.1568
     18 C12         0.0021   -0.0041    0.0020 C.3       1 <0>        -0.0477
     19 C13        -0.0187    1.5253    0.0104 C.3       1 <0>        -0.1211
     20 C14         1.3941    2.0864   -0.0000 C.3       1 <0>        -0.1222
     21 C15         2.3563    1.2745    0.8431 C.3       1 <0>        -0.1329
     22 C16         2.2139    1.7686    2.2867 C.3       1 <0>        -0.1160
     23 C17         0.7971    1.4682    2.7750 C.3       1 <0>        -0.0694
     24 H2          2.4702   -6.4376    4.1994 H         1 <0>         0.0768
     25 H3          2.6727   -5.1998    5.4623 H         1 <0>         0.0791
     26 H4          2.1574   -6.8454    5.9035 H         1 <0>         0.0836
     27 H5          0.0889   -7.8901    6.2445 H         1 <0>         0.4039
     28 H6         -1.4240   -9.0646    3.9011 H         1 <0>         0.1405
     29 H7         -2.1338   -9.2019    6.9528 H         1 <0>         0.0986
     30 H8         -3.0248  -10.0712    5.5919 H         1 <0>         0.1051
     31 H9         -0.8908  -11.2985    4.9781 H         1 <0>         0.1064
     32 H10         0.0010  -10.4296    6.3385 H         1 <0>         0.0991
     33 H11         0.7344   -0.4809    4.6648 H         1 <0>         0.1464
     34 H12        -0.9639   -0.3689   -0.3473 H         1 <0>         0.0874
     35 H13         0.7773   -0.3434   -0.6850 H         1 <0>         0.0874
     36 H14        -0.5522    1.8813   -0.8708 H         1 <0>         0.0737
     37 H15        -0.5353    1.8718    0.9055 H         1 <0>         0.0774
     38 H16         1.7571    2.1051   -1.0277 H         1 <0>         0.0588
     39 H17         1.3693    3.1076    0.3801 H         1 <0>         0.0648
     40 H18         3.3777    1.4303    0.4958 H         1 <0>         0.0643
     41 H19         2.1000    0.2166    0.7852 H         1 <0>         0.0760
     42 H20         2.3927    2.8432    2.3240 H         1 <0>         0.0698
     43 H21         2.9356    1.2561    2.9227 H         1 <0>         0.0610
     44 H22         0.0805    2.0598    2.2052 H         1 <0>         0.0879
     45 H23         0.7127    1.7119    3.8340 H         1 <0>         0.0722
@<TRIPOS>BOND
     1    1    2 1
     2    1   24 1
     3    1   25 1
     4    1   26 1
     5    2    3 1
     6    2    4 1
     7    2   10 1
     8    4    5 2
     9    4    6 am
    10    6    7 1
    11    6   27 1
    12    7    9 1
    13    7    8 1
    14    7   28 1
    15    8    9 1
    16    8   29 1
    17    8   30 1
    18    9   31 1
    19    9   32 1
    20   10   11 1
    21   11   12 2
    22   11   13 1
    23   13   17 1
    24   13   14 2
    25   14   15 1
    26   14   33 1
    27   15   23 1
    28   15   16 2
    29   16   17 1
    30   16   18 1
    31   18   19 1
    32   18   34 1
    33   18   35 1
    34   19   20 1
    35   19   36 1
    36   19   37 1
    37   20   21 1
    38   20   38 1
    39   20   39 1
    40   21   22 1
    41   21   40 1
    42   21   41 1
    43   22   23 1
    44   22   42 1
    45   22   43 1
    46   23   44 1
    47   23   45 1
@<TRIPOS>MOLECULE
ZINC08785985
   45    47     0     0     0
SMALL
USER_CHARGES
2-[1-[2-(4-methylphenoxy)ethyl]benzoimidazol-2-yl]propan-2-ol
@<TRIPOS>ATOM
      1 C1          0.9721    3.5014   -1.3497 C.3       1 <0>        -0.1116
      2 C2          0.9948    2.0130   -1.1151 C.ar      1 <0>        -0.1231
      3 C3         -0.1925    1.3166   -0.9846 C.ar      1 <0>        -0.0808
      4 C4         -0.1744   -0.0478   -0.7694 C.ar      1 <0>        -0.1465
      5 C5          1.0366   -0.7194   -0.6843 C.ar      1 <0>         0.1263
      6 C6          2.2266   -0.0184   -0.8156 C.ar      1 <0>        -0.2029
      7 C7          2.2030    1.3460   -1.0307 C.ar      1 <0>        -0.0804
      8 O1          1.0571   -2.0616   -0.4722 O.3       1 <0>        -0.3101
      9 C8          2.3398   -2.6868   -0.3957 C.3       1 <0>         0.0557
     10 C9          2.1623   -4.1873   -0.1550 C.3       1 <0>         0.1206
     11 N1          3.4773   -4.8282   -0.0766 N.pl3     1 <0>        -0.4724
     12 C10         4.1861   -5.1030    1.0757 C.ar      1 <0>         0.0449
     13 C11         3.9490   -4.8997    2.4285 C.ar      1 <0>        -0.1107
     14 C12         4.8875   -5.3026    3.3543 C.ar      1 <0>        -0.0990
     15 C13         6.0664   -5.9083    2.9429 C.ar      1 <0>        -0.1263
     16 C14         6.3168   -6.1164    1.6163 C.ar      1 <0>        -0.0628
     17 C15         5.3797   -5.7167    0.6598 C.ar      1 <0>         0.0485
     18 N2          5.3385   -5.7833   -0.6958 N.2       1 <0>        -0.4820
     19 C16         4.2236   -5.2682   -1.1254 C.2       1 <0>         0.2984
     20 C17         3.8195   -5.1702   -2.5739 C.3       1 <0>         0.2083
     21 C18         4.9321   -4.4834   -3.3684 C.3       1 <0>        -0.1696
     22 C19         3.5850   -6.5745   -3.1341 C.3       1 <0>        -0.1713
     23 O2          2.6161   -4.4072   -2.6821 O.3       1 <0>        -0.5590
     24 H1          0.9842    4.0205   -0.3914 H         1 <0>         0.0688
     25 H2          1.8476    3.7910   -1.9309 H         1 <0>         0.0649
     26 H3          0.0681    3.7692   -1.8967 H         1 <0>         0.0661
     27 H4         -1.1350    1.8392   -1.0554 H         1 <0>         0.1300
     28 H5         -1.1021   -0.5912   -0.6671 H         1 <0>         0.1314
     29 H6          3.1706   -0.5389   -0.7493 H         1 <0>         0.1242
     30 H7          3.1291    1.8920   -1.1333 H         1 <0>         0.1243
     31 H8          2.8769   -2.5298   -1.3311 H         1 <0>         0.0785
     32 H9          2.9076   -2.2516    0.4267 H         1 <0>         0.0573
     33 H10         1.6252   -4.3442    0.7804 H         1 <0>         0.0918
     34 H11         1.5944   -4.6224   -0.9774 H         1 <0>         0.1248
     35 H12         3.0335   -4.4282    2.7539 H         1 <0>         0.1220
     36 H13         4.7043   -5.1454    4.4070 H         1 <0>         0.1314
     37 H14         6.7931   -6.2185    3.6791 H         1 <0>         0.1311
     38 H15         7.2375   -6.5887    1.3071 H         1 <0>         0.1303
     39 H16         5.8500   -5.0654   -3.2859 H         1 <0>         0.0830
     40 H17         4.6398   -4.4125   -4.4161 H         1 <0>         0.0720
     41 H18         5.0991   -3.4829   -2.9693 H         1 <0>         0.0634
     42 H19         2.7839   -7.0592   -2.5761 H         1 <0>         0.0652
     43 H20         3.3049   -6.5043   -4.1851 H         1 <0>         0.0735
     44 H21         4.4993   -7.1605   -3.0401 H         1 <0>         0.0806
     45 H22         2.2966   -4.3030   -3.5888 H         1 <0>         0.3908
@<TRIPOS>BOND
     1    1    2 1
     2    1   24 1
     3    1   25 1
     4    1   26 1
     5    2    7 ar
     6    2    3 ar
     7    3    4 ar
     8    3   27 1
     9    4    5 ar
    10    4   28 1
    11    5    6 ar
    12    5    8 1
    13    6    7 ar
    14    6   29 1
    15    7   30 1
    16    8    9 1
    17    9   10 1
    18    9   31 1
    19    9   32 1
    20   10   11 1
    21   10   33 1
    22   10   34 1
    23   11   19 1
    24   11   12 1
    25   12   17 ar
    26   12   13 ar
    27   13   14 ar
    28   13   35 1
    29   14   15 ar
    30   14   36 1
    31   15   16 ar
    32   15   37 1
    33   16   17 ar
    34   16   38 1
    35   17   18 1
    36   18   19 2
    37   19   20 1
    38   20   21 1
    39   20   22 1
    40   20   23 1
    41   21   39 1
    42   21   40 1
    43   21   41 1
    44   22   42 1
    45   22   43 1
    46   22   44 1
    47   23   45 1
@<TRIPOS>MOLECULE
ZINC05015905
   32    33     0     0     0
SMALL
USER_CHARGES

@<TRIPOS>ATOM
      1 C1         -0.0187    1.5258    0.0104 C.3       1 <0>        -0.1492
      2 C2          0.0021   -0.0041    0.0020 C.3       1 <0>        -0.1425
      3 C3          0.7421   -0.5109    1.2415 C.3       1 <0>         0.1233
      4 N1          0.7619   -1.9757    1.2335 N.am      1 <0>        -0.5320
      5 C4         -0.1714   -2.7805    1.7794 C.2       1 <0>         0.6532
      6 O1         -1.1778   -2.4218    2.3648 O.2       1 <0>        -0.5461
      7 N2          0.2110   -4.0554    1.5596 N.am      1 <0>        -0.5420
      8 H1         -0.2644   -4.8537    1.8383 H         1 <0>         0.4575
      9 N3          1.4215   -4.0145    0.8540 N.2       1 <0>        -0.2825
     10 C5          1.7339   -2.7653    0.6619 C.2       1 <0>         0.2529
     11 S1          3.1651   -2.1824   -0.1846 S.3       1 <0>         0.0320
     12 C6          4.0250   -3.6982   -0.6880 C.3       1 <0>        -0.0691
     13 C7          5.2846   -3.3375   -1.4326 C.ar      1 <0>        -0.0690
     14 C8          5.2521   -3.1695   -2.8046 C.ar      1 <0>        -0.0794
     15 C9          6.4066   -2.8391   -3.4887 C.ar      1 <0>        -0.0970
     16 C10         7.5957   -2.6759   -2.8006 C.ar      1 <0>        -0.0214
     17 C11         7.6281   -2.8437   -1.4268 C.ar      1 <0>        -0.0323
     18 C12         6.4704   -3.1693   -0.7429 C.ar      1 <0>        -0.0766
     19 Cl1         9.1195   -2.6398   -0.5620 Cl        1 <0>        -0.0394
     20 Cl2         9.0463   -2.2615   -3.6595 Cl        1 <0>        -0.0400
     21 H2          1.0039    1.9031    0.0027 H         1 <0>         0.0605
     22 H3         -0.5459    1.8868   -0.8726 H         1 <0>         0.0640
     23 H4         -0.5289    1.8773    0.9072 H         1 <0>         0.0598
     24 H5         -1.0205   -0.3814    0.0098 H         1 <0>         0.0709
     25 H6          0.5123   -0.3556   -0.8948 H         1 <0>         0.0723
     26 H7          1.7647   -0.1336    1.2338 H         1 <0>         0.0979
     27 H8          0.2319   -0.1594    2.1383 H         1 <0>         0.1017
     28 H9          4.2803   -4.2819    0.1964 H         1 <0>         0.1139
     29 H10         3.3754   -4.2862   -1.3363 H         1 <0>         0.1154
     30 H11         4.3240   -3.2969   -3.3421 H         1 <0>         0.1456
     31 H12         6.3806   -2.7088   -4.5605 H         1 <0>         0.1490
     32 H13         6.4942   -3.2964    0.3293 H         1 <0>         0.1486
@<TRIPOS>BOND
     1    1    2 1
     2    1   21 1
     3    1   22 1
     4    1   23 1
     5    2    3 1
     6    2   24 1
     7    2   25 1
     8    3    4 1
     9    3   26 1
    10    3   27 1
    11    4   10 1
    12    4    5 am
    13    5    6 2
    14    5    7 am
    15    7    8 1
    16    7    9 1
    17    9   10 2
    18   10   11 1
    19   11   12 1
    20   12   13 1
    21   12   28 1
    22   12   29 1
    23   13   18 ar
    24   13   14 ar
    25   14   15 ar
    26   14   30 1
    27   15   16 ar
    28   15   31 1
    29   16   17 ar
    30   16   20 1
    31   17   18 ar
    32   17   19 1
    33   18   32 1
@<TRIPOS>MOLECULE
ZINC49282333
   38    39     0     0     0
SMALL
USER_CHARGES

@<TRIPOS>ATOM
      1 C1         -0.0173    1.4248    0.0099 C.3       1 <0>         0.0200
      2 O1          0.0021   -0.0041    0.0020 O.3       1 <0>        -0.2972
      3 C2          0.6059   -0.6072   -1.0559 C.ar      1 <0>         0.1940
      4 C3          1.1730    0.1603   -2.0625 C.ar      1 <0>        -0.2189
      5 C4          1.7866   -0.4549   -3.1365 C.ar      1 <0>         0.0279
      6 C5          1.8356   -1.8349   -3.2094 C.ar      1 <0>        -0.7074
      7 C6          1.2710   -2.6030   -2.2082 C.ar      1 <0>         0.0253
      8 C7          0.6611   -1.9924   -1.1280 C.ar      1 <0>        -0.0922
      9 Cl1        -0.0415   -2.9569    0.1328 Cl        1 <0>        -0.0412
     10 S1          2.6186   -2.6158   -4.5812 S.o2      1 <0>         2.7001
     11 O2          2.0523   -3.9148   -4.6867 O.2       1 <0>        -0.9511
     12 O3          2.5879   -1.6821   -5.6519 O.2       1 <0>        -0.9549
     13 N1          4.2120   -2.8252   -4.1814 N.pl3     1 <0>        -1.1151
     14 C8          4.5797   -3.7208   -3.0820 C.3       1 <0>         0.1175
     15 C9          6.0765   -4.0294   -3.1544 C.3       1 <0>        -0.0947
     16 H1          6.3209   -4.4290   -4.1387 H         1 <0>         0.0851
     17 C10         6.4442   -5.0558   -2.0754 C.3       1 <0>        -0.1156
     18 C11         7.9001   -5.4778   -2.2849 C.3       1 <0>        -0.0926
     19 C12         8.7732   -4.2663   -2.4332 C.2       1 <0>        -0.1546
     20 C13         8.3291   -3.0812   -2.7050 C.2       1 <0>        -0.1586
     21 C14         6.8782   -2.7501   -2.9051 C.3       1 <0>        -0.0877
     22 H2          1.0053    1.8021    0.0021 H         1 <0>         0.0633
     23 H3         -0.5445    1.7859   -0.8732 H         1 <0>         0.0637
     24 H4         -0.5275    1.7763    0.9067 H         1 <0>         0.1101
     25 H5          1.1347    1.2382   -2.0068 H         1 <0>         0.1489
     26 H6          2.2283    0.1427   -3.9203 H         1 <0>         0.1507
     27 H7          1.3099   -3.6806   -2.2678 H         1 <0>         0.1575
     28 H8          4.9017   -2.3549   -4.6753 H         1 <0>         0.4199
     29 H9          4.3536   -3.2398   -2.1304 H         1 <0>         0.0680
     30 H10         4.0131   -4.6484   -3.1639 H         1 <0>         0.0850
     31 H11         6.3313   -4.6065   -1.0887 H         1 <0>         0.0689
     32 H12         5.7943   -5.9266   -2.1614 H         1 <0>         0.0724
     33 H13         8.2342   -6.0611   -1.4269 H         1 <0>         0.0742
     34 H14         7.9734   -6.0883   -3.1849 H         1 <0>         0.0753
     35 H15         9.8383   -4.3909   -2.3048 H         1 <0>         0.1026
     36 H16         9.0475   -2.2801   -2.7972 H         1 <0>         0.1028
     37 H17         6.7706   -2.0837   -3.7609 H         1 <0>         0.0722
     38 H18         6.4973   -2.2532   -2.0128 H         1 <0>         0.0763
@<TRIPOS>BOND
     1    1    2 1
     2    1   22 1
     3    1   23 1
     4    1   24 1
     5    2    3 1
     6    3    8 ar
     7    3    4 ar
     8    4    5 ar
     9    4   25 1
    10    5    6 ar
    11    5   26 1
    12    6    7 ar
    13    6   10 1
    14    7    8 ar
    15    7   27 1
    16    8    9 1
    17   10   11 2
    18   10   12 2
    19   10   13 1
    20   13   14 1
    21   13   28 1
    22   14   15 1
    23   14   29 1
    24   14   30 1
    25   15   16 1
    26   15   21 1
    27   15   17 1
    28   17   18 1
    29   17   31 1
    30   17   32 1
    31   18   19 1
    32   18   33 1
    33   18   34 1
    34   19   20 2
    35   19   35 1
    36   20   21 1
    37   20   36 1
    38   21   37 1
    39   21   38 1
@<TRIPOS>MOLECULE
ZINC65928341
   48    50     0     0     0
SMALL
USER_CHARGES

@<TRIPOS>ATOM
      1 C1         -0.7212    2.0364   -0.4341 C.3       1 <0>        -0.1714
      2 C2         -0.3077    0.5708   -0.2864 C.3       1 <0>         0.1031
      3 N1         -1.5027   -0.2586   -0.1118 N.pl3     1 <0>        -0.4851
      4 C3         -2.1034   -0.5859    1.0873 C.ar      1 <0>         0.0504
      5 C4         -1.8342   -0.2888    2.4165 C.ar      1 <0>        -0.1118
      6 C5         -2.6533   -0.7872    3.4070 C.ar      1 <0>        -0.0996
      7 C6         -3.7433   -1.5831    3.0840 C.ar      1 <0>        -0.1282
      8 C7         -4.0233   -1.8861    1.7818 C.ar      1 <0>        -0.0624
      9 C8         -3.2074   -1.3914    0.7609 C.ar      1 <0>         0.0451
     10 N2         -3.2231   -1.5115   -0.5916 N.2       1 <0>        -0.4844
     11 C9         -2.2295   -0.8440   -1.1015 C.2       1 <0>         0.2840
     12 C10        -1.9259   -0.7378   -2.5738 C.3       1 <0>        -0.0541
     13 C11        -0.9930   -1.8785   -2.9857 C.3       1 <0>         0.1270
     14 N3         -0.6979   -1.7753   -4.4169 N.am      1 <0>        -0.7294
     15 C12         0.1095   -2.6799   -5.0054 C.2       1 <0>         0.5507
     16 O1          0.5931   -3.5817   -4.3483 O.2       1 <0>        -0.5346
     17 C13         0.4059   -2.5763   -6.4425 C.2       1 <0>        -0.2426
     18 C14         1.0869   -3.5422   -7.0524 C.2       1 <0>        -0.0075
     19 C15         1.3285   -4.8705   -6.3702 C.3       1 <0>        -0.1237
     20 C16         0.8954   -5.9920   -7.3204 C.3       1 <0>        -0.1177
     21 C17         1.6171   -5.8306   -8.6593 C.3       1 <0>        -0.1252
     22 C18         1.1950   -4.5177   -9.3210 C.3       1 <0>        -0.1180
     23 C19         1.6343   -3.3429   -8.4484 C.3       1 <0>        -0.0959
     24 H1          0.1679    2.6534   -0.5640 H         1 <0>         0.0794
     25 H2         -1.3692    2.1452   -1.3038 H         1 <0>         0.0632
     26 H3         -1.2569    2.3547    0.4602 H         1 <0>         0.0641
     27 H4          0.2280    0.2524   -1.1807 H         1 <0>         0.0942
     28 H5          0.3403    0.4620    0.5833 H         1 <0>         0.0925
     29 H6         -0.9868    0.3295    2.6733 H         1 <0>         0.1210
     30 H7         -2.4451   -0.5569    4.4414 H         1 <0>         0.1306
     31 H8         -4.3764   -1.9670    3.8702 H         1 <0>         0.1303
     32 H9         -4.8737   -2.5070    1.5417 H         1 <0>         0.1295
     33 H10        -2.8538   -0.8042   -3.1418 H         1 <0>         0.1094
     34 H11        -1.4429    0.2179   -2.7772 H         1 <0>         0.0915
     35 H12        -0.0651   -1.8121   -2.4177 H         1 <0>         0.0679
     36 H13        -1.4760   -2.8342   -2.7823 H         1 <0>         0.0794
     37 H14        -1.0836   -1.0560   -4.9411 H         1 <0>         0.4024
     38 H15         0.0704   -1.7158   -7.0024 H         1 <0>         0.1278
     39 H16         2.3884   -4.9758   -6.1387 H         1 <0>         0.0773
     40 H17         0.7434   -4.9223   -5.4520 H         1 <0>         0.1202
     41 H18         1.1511   -6.9574   -6.8837 H         1 <0>         0.0677
     42 H19        -0.1816   -5.9383   -7.4791 H         1 <0>         0.0612
     43 H20         2.6941   -5.8219   -8.4917 H         1 <0>         0.0637
     44 H21         1.3599   -6.6645   -9.3124 H         1 <0>         0.0640
     45 H22         1.6629   -4.4382  -10.3023 H         1 <0>         0.0684
     46 H23         0.1108   -4.4989   -9.4324 H         1 <0>         0.0645
     47 H24         1.2456   -2.4136   -8.8648 H         1 <0>         0.0748
     48 H25         2.7230   -3.3042   -8.4127 H         1 <0>         0.0863
@<TRIPOS>BOND
     1    1    2 1
     2    1   24 1
     3    1   25 1
     4    1   26 1
     5    2    3 1
     6    2   27 1
     7    2   28 1
     8    3   11 1
     9    3    4 1
    10    4    9 ar
    11    4    5 ar
    12    5    6 ar
    13    5   29 1
    14    6    7 ar
    15    6   30 1
    16    7    8 ar
    17    7   31 1
    18    8    9 ar
    19    8   32 1
    20    9   10 1
    21   10   11 2
    22   11   12 1
    23   12   13 1
    24   12   33 1
    25   12   34 1
    26   13   14 1
    27   13   35 1
    28   13   36 1
    29   14   15 am
    30   14   37 1
    31   15   16 2
    32   15   17 1
    33   17   18 2
    34   17   38 1
    35   18   23 1
    36   18   19 1
    37   19   20 1
    38   19   39 1
    39   19   40 1
    40   20   21 1
    41   20   41 1
    42   20   42 1
    43   21   22 1
    44   21   43 1
    45   21   44 1
    46   22   23 1
    47   22   45 1
    48   22   46 1
    49   23   47 1
    50   23   48 1
@<TRIPOS>MOLECULE
ZINC13434434
   46    49     0     0     0
SMALL
USER_CHARGES
(2S)-4-[(5R)-5-ethyl4,5,6,7-tetrahydrobenzothiophene-2-carbonyl]-2,3-dihydro-1,4-benzoxazine-2-carboxylic acid
@<TRIPOS>ATOM
      1 C1          3.0921    4.0014   -0.4726 C.3       1 <0>        -0.1552
      2 C2          1.6713    3.4364   -0.5258 C.3       1 <0>        -0.1187
      3 C3          1.7100    1.9320   -0.2498 C.3       1 <0>        -0.0880
      4 H1          2.3925    1.4540   -0.9525 H         1 <0>         0.0730
      5 C4          0.3062    1.3464   -0.4260 C.3       1 <0>        -0.1092
      6 C5          0.4055   -0.1858   -0.4147 C.3       1 <0>        -0.0459
      7 C6          1.2487   -0.5958    0.7531 C.2       1 <0>        -0.1810
      8 C7          2.0670    0.2039    1.4990 C.2       1 <0>        -0.1498
      9 C8          2.7529   -0.4025    2.5389 C.2       1 <0>        -0.0564
     10 C9          2.5628   -1.7566    2.7446 C.2       1 <0>        -0.2602
     11 S1          1.4027   -2.1630    1.4506 S.3       1 <0>         0.2048
     12 C10         3.1589   -2.6299    3.7595 C.2       1 <0>         0.6114
     13 O1          4.0533   -2.2129    4.4719 O.2       1 <0>        -0.5158
     14 N1          2.7166   -3.8948    3.9038 N.am      1 <0>        -0.5471
     15 C11         1.6177   -4.4174    3.0737 C.3       1 <0>         0.0861
     16 C12         0.6969   -5.2397    3.9798 C.3       1 <0>         0.0391
     17 H2          0.2754   -4.5956    4.7515 H         1 <0>         0.0808
     18 O2          1.4589   -6.2836    4.5907 O.3       1 <0>        -0.2810
     19 C13         2.6332   -5.9453    5.1853 C.ar      1 <0>         0.1072
     20 C14         3.2837   -4.7589    4.8551 C.ar      1 <0>         0.0710
     21 C15         4.4852   -4.4312    5.4624 C.ar      1 <0>        -0.1142
     22 C16         5.0377   -5.2837    6.4008 C.ar      1 <0>        -0.1439
     23 C17         4.3926   -6.4605    6.7322 C.ar      1 <0>        -0.1046
     24 C18         3.1945   -6.7933    6.1279 C.ar      1 <0>        -0.1357
     25 C19        -0.4158   -5.8402    3.1599 C.2       1 <0>         0.4790
     26 O3         -0.4910   -7.0390    3.0295 O.co2     1 <0>        -0.6006
     27 C20         2.1999    1.6904    1.1785 C.3       1 <0>        -0.0493
     28 H3          3.0645    5.0732   -0.6693 H         1 <0>         0.0517
     29 H4          3.5169    3.8242    0.5154 H         1 <0>         0.0567
     30 H5          3.7072    3.5095   -1.2261 H         1 <0>         0.0532
     31 H6          1.2465    3.6137   -1.5139 H         1 <0>         0.0625
     32 H7          1.0562    3.9284    0.2276 H         1 <0>         0.0624
     33 H8         -0.1117    1.6786   -1.3764 H         1 <0>         0.0723
     34 H9         -0.3332    1.6773    0.3924 H         1 <0>         0.0684
     35 H10        -0.5906   -0.6175   -0.3179 H         1 <0>         0.0879
     36 H11         0.8673   -0.5306   -1.3399 H         1 <0>         0.0861
     37 H12         3.4174    0.1670    3.1718 H         1 <0>         0.1407
     38 H13         1.0606   -3.5900    2.6341 H         1 <0>         0.1105
     39 H14         2.0200   -5.0537    2.2854 H         1 <0>         0.0946
     40 H15         4.9894   -3.5120    5.2031 H         1 <0>         0.1656
     41 H16         5.9743   -5.0299    6.8750 H         1 <0>         0.1234
     42 H17         4.8268   -7.1233    7.4662 H         1 <0>         0.1254
     43 H18         2.6951   -7.7142    6.3905 H         1 <0>         0.1344
     44 H19         1.5949    2.2700    1.8757 H         1 <0>         0.0730
     45 H20         3.2442    1.9907    1.2640 H         1 <0>         0.0741
     46 O4         -1.3234   -5.0432    2.5744 O.co2     1 <0>        -0.7387
@<TRIPOS>BOND
     1    1    2 1
     2    1   28 1
     3    1   29 1
     4    1   30 1
     5    2    3 1
     6    2   31 1
     7    2   32 1
     8    3    4 1
     9    3   27 1
    10    3    5 1
    11    5    6 1
    12    5   33 1
    13    5   34 1
    14    6    7 1
    15    6   35 1
    16    6   36 1
    17    7   11 1
    18    7    8 2
    19    8    9 1
    20    8   27 1
    21    9   10 2
    22    9   37 1
    23   10   11 1
    24   10   12 1
    25   12   13 2
    26   12   14 am
    27   14   20 1
    28   14   15 1
    29   15   16 1
    30   15   38 1
    31   15   39 1
    32   16   17 1
    33   16   18 1
    34   16   25 1
    35   18   19 1
    36   19   24 ar
    37   19   20 ar
    38   20   21 ar
    39   21   22 ar
    40   21   40 1
    41   22   23 ar
    42   22   41 1
    43   23   24 ar
    44   23   42 1
    45   24   43 1
    46   25   26 2
    47   25   46 1
    48   27   44 1
    49   27   45 1
@<TRIPOS>MOLECULE
ZINC26469277
   37    38     0     0     0
SMALL
USER_CHARGES
5-[(4-bromo-2-isopropyl-phenoxy)methyl]-4-ethyl-1,2,4-triazole-3-thiol
@<TRIPOS>ATOM
      1 C1         -4.9398    2.0133    4.0822 C.3       1 <0>        -0.1631
      2 C2         -5.1028    0.7852    4.9801 C.3       1 <0>         0.1150
      3 N1         -5.0887   -0.4267    4.1572 N.pl3     1 <0>        -0.4808
      4 C3         -3.9981   -1.1725    3.8041 C.2       1 <0>         0.1001
      5 N2         -4.4258   -2.1640    3.0748 N.2       1 <0>        -0.2685
      6 N3         -5.7020   -2.0939    2.9397 N.2       1 <0>        -0.3412
      7 C4         -6.1614   -1.0446    3.5812 C.2       1 <0>         0.3804
      8 S1         -7.8447   -0.5341    3.6847 S.3       1 <0>        -0.8043
      9 C5         -2.5667   -0.8983    4.1875 C.3       1 <0>         0.1651
     10 O1         -1.9611   -0.0617    3.2000 O.3       1 <0>        -0.2986
     11 C6         -0.6610    0.2826    3.3962 C.ar      1 <0>         0.1577
     12 C7          0.0197   -0.1810    4.5129 C.ar      1 <0>        -0.2043
     13 C8          1.3389    0.1753    4.7138 C.ar      1 <0>        -0.0528
     14 C9          1.9839    0.9884    3.7987 C.ar      1 <0>        -0.1307
     15 C10         1.3094    1.4460    2.6811 C.ar      1 <0>        -0.0486
     16 C11        -0.0107    1.0925    2.4769 C.ar      1 <0>        -0.1012
     17 C12        -0.7451    1.5917    1.2594 C.3       1 <0>        -0.0547
     18 C13        -0.0322    1.1021   -0.0027 C.3       1 <0>        -0.1432
     19 C14        -0.7699    3.1215    1.2702 C.3       1 <0>        -0.1428
     20 Br1         3.7902    1.4742    4.0760 Br        1 <0>        -0.0600
     21 H1         -4.9504    2.9233    4.7001 H         1 <0>         0.0671
     22 H2         -5.7679    2.0514    3.3592 H         1 <0>         0.0704
     23 H3         -3.9839    1.9481    3.5418 H         1 <0>         0.0566
     24 H4         -4.2747    0.7471    5.7031 H         1 <0>         0.0739
     25 H5         -6.0587    0.8504    5.5205 H         1 <0>         0.1011
     26 H6         -2.0158   -1.8483    4.2512 H         1 <0>         0.0924
     27 H7         -2.5391   -0.3923    5.1638 H         1 <0>         0.0742
     28 H8         -0.4835   -0.8158    5.2274 H         1 <0>         0.1382
     29 H9          1.8674   -0.1811    5.5856 H         1 <0>         0.1332
     30 H10         1.8146    2.0802    1.9679 H         1 <0>         0.1359
     31 H11        -1.7730    1.2007    1.2838 H         1 <0>         0.0923
     32 H12        -0.5684    1.4665   -0.8914 H         1 <0>         0.0597
     33 H13        -0.0145    0.0023   -0.0105 H         1 <0>         0.0575
     34 H14         0.9987    1.4856   -0.0136 H         1 <0>         0.0540
     35 H15        -1.3060    3.4858    0.3815 H         1 <0>         0.0597
     36 H16         0.2610    3.5050    1.2594 H         1 <0>         0.0542
     37 H17        -1.2825    3.4735    2.1776 H         1 <0>         0.0559
@<TRIPOS>BOND
     1    1    2 1
     2    1   21 1
     3    1   22 1
     4    1   23 1
     5    2   24 1
     6    2   25 1
     7    2    3 1
     8    3    7 1
     9    3    4 1
    10    4    9 1
    11    4    5 2
    12    5    6 1
    13    6    7 2
    14    7    8 1
    15    9   10 1
    16    9   26 1
    17    9   27 1
    18   10   11 1
    19   11   16 ar
    20   11   12 ar
    21   12   13 ar
    22   12   28 1
    23   13   14 ar
    24   13   29 1
    25   14   15 ar
    26   14   20 1
    27   15   16 ar
    28   15   30 1
    29   16   17 1
    30   17   18 1
    31   17   19 1
    32   17   31 1
    33   18   32 1
    34   18   33 1
    35   18   34 1
    36   19   35 1
    37   19   36 1
    38   19   37 1
@<TRIPOS>MOLECULE
ZINC37683539
   34    35     0     0     0
SMALL
USER_CHARGES

@<TRIPOS>ATOM
      1 C1         -0.0187    1.5258    0.0104 C.3       1 <0>        -0.1442
      2 C2          0.0021   -0.0041    0.0020 C.3       1 <0>        -0.1685
      3 C3          0.7074   -0.4901   -1.2379 C.2       1 <0>         0.3950
      4 O1          1.1499    0.3083   -2.0360 O.2       1 <0>        -0.4485
      5 C4          0.8593   -1.9337   -1.4800 C.ar      1 <0>        -0.2005
      6 C5          0.3452   -2.8579   -0.5646 C.ar      1 <0>        -0.0378
      7 C6          0.4911   -4.2087   -0.7987 C.ar      1 <0>        -0.1573
      8 C7          1.1443   -4.6511   -1.9362 C.ar      1 <0>         0.0081
      9 C8          1.6560   -3.7430   -2.8463 C.ar      1 <0>        -0.6275
     10 C9          1.5132   -2.3886   -2.6292 C.ar      1 <0>         0.0357
     11 S1          2.4864   -4.3188   -4.2898 S.o2      1 <0>         2.6012
     12 O2          3.3497   -3.2701   -4.7072 O.2       1 <0>        -1.0225
     13 O3          2.9624   -5.6240   -3.9911 O.2       1 <0>        -1.0248
     14 N1          1.3438   -4.4916   -5.4759 N.2       1 <0>        -1.0838
     15 C10         1.7171   -4.9393   -6.7457 C.ar      1 <0>         0.2930
     16 C11         3.0454   -5.2453   -7.0130 C.ar      1 <0>        -0.2608
     17 C12         3.4114   -5.6875   -8.2691 C.ar      1 <0>        -0.0329
     18 C13         2.4566   -5.8255   -9.2609 C.ar      1 <0>        -0.1889
     19 C14         1.1327   -5.5215   -8.9975 C.ar      1 <0>        -0.0483
     20 C15         0.7598   -5.0847   -7.7416 C.ar      1 <0>        -0.1775
     21 Br1         2.9621   -6.4302  -10.9798 Br        1 <0>        -0.1003
     22 H1          1.0039    1.9031    0.0027 H         1 <0>         0.0603
     23 H2         -0.5459    1.8868   -0.8726 H         1 <0>         0.0610
     24 H3         -0.5289    1.8773    0.9072 H         1 <0>         0.0602
     25 H4          0.5293   -0.3651    0.8851 H         1 <0>         0.0979
     26 H5         -1.0205   -0.3814    0.0098 H         1 <0>         0.0987
     27 H6         -0.1644   -2.5143    0.3235 H         1 <0>         0.1342
     28 H7          0.0950   -4.9236   -0.0927 H         1 <0>         0.1348
     29 H8          1.2553   -5.7105   -2.1140 H         1 <0>         0.1426
     30 H9          1.9091   -1.6812   -3.3428 H         1 <0>         0.1473
     31 H10         3.7912   -5.1371   -6.2394 H         1 <0>         0.1048
     32 H11         4.4440   -5.9256   -8.4775 H         1 <0>         0.1126
     33 H12         0.3897   -5.6298   -9.7737 H         1 <0>         0.1153
     34 H13        -0.2745   -4.8518   -7.5353 H         1 <0>         0.1212
@<TRIPOS>BOND
     1    1    2 1
     2    1   22 1
     3    1   23 1
     4    1   24 1
     5    2    3 1
     6    2   25 1
     7    2   26 1
     8    3    4 2
     9    3    5 1
    10    5   10 ar
    11    5    6 ar
    12    6    7 ar
    13    6   27 1
    14    7    8 ar
    15    7   28 1
    16    8    9 ar
    17    8   29 1
    18    9   10 ar
    19    9   11 1
    20   10   30 1
    21   11   12 2
    22   11   13 2
    23   11   14 1
    24   14   15 1
    25   15   20 ar
    26   15   16 ar
    27   16   17 ar
    28   16   31 1
    29   17   18 ar
    30   17   32 1
    31   18   19 ar
    32   18   21 1
    33   19   20 ar
    34   19   33 1
    35   20   34 1
@<TRIPOS>MOLECULE
ZINC40357414
   52    55     0     0     0
SMALL
USER_CHARGES

@<TRIPOS>ATOM
      1 C1         -2.9293   -6.4162    4.0671 C.3       1 <0>        -0.1938
      2 C2         -2.1572   -5.1315    4.2233 C.2       1 <0>         0.4139
      3 O1         -1.2505   -5.0623    5.0272 O.2       1 <0>        -0.5159
      4 C3         -2.4892   -4.0058    3.4327 C.2       1 <0>        -0.4949
      5 C4         -1.8840   -2.7927    3.4579 C.2       1 <0>         0.2860
      6 C5         -2.5405   -1.9033    2.4744 C.2       1 <0>         0.5071
      7 O2         -2.2270   -0.7495    2.2595 O.2       1 <0>        -0.5174
      8 N1         -3.5358   -2.5616    1.8533 N.am      1 <0>        -0.6032
      9 C6         -3.5824   -3.9255    2.3929 C.3       1 <0>         0.2495
     10 H1         -4.5525   -4.1105    2.8542 H         1 <0>         0.0721
     11 C7         -3.3295   -4.9285    1.2970 C.ar      1 <0>        -0.0662
     12 C8         -2.3099   -4.7166    0.3879 C.ar      1 <0>        -0.0948
     13 C9         -2.0779   -5.6366   -0.6174 C.ar      1 <0>        -0.1224
     14 C10        -2.8651   -6.7688   -0.7133 C.ar      1 <0>        -0.1317
     15 C11        -3.8841   -6.9812    0.1964 C.ar      1 <0>        -0.1246
     16 C12        -4.1134   -6.0633    1.2042 C.ar      1 <0>        -0.1159
     17 C13        -4.4147   -2.0150    0.8164 C.3       1 <0>         0.1522
     18 C14        -5.6051   -1.3143    1.4742 C.3       1 <0>        -0.0370
     19 C15        -6.3462   -2.2933    2.4017 C.3       1 <0>        -0.1347
     20 C16        -7.7846   -2.4129    1.8573 C.3       1 <0>        -0.1214
     21 C17        -7.6595   -2.0201    0.3643 C.3       1 <0>        -0.1229
     22 C18        -6.6191   -0.8732    0.3985 C.3       1 <0>        -0.1067
     23 C19        -5.1307   -0.1178    2.2580 C.ar      1 <0>        -0.0647
     24 C20        -4.2849    0.8033    1.6689 C.ar      1 <0>        -0.0742
     25 C21        -3.8497    1.9008    2.3879 C.ar      1 <0>        -0.1097
     26 C22        -4.2608    2.0776    3.6958 C.ar      1 <0>        -0.1243
     27 C23        -5.1074    1.1570    4.2846 C.ar      1 <0>        -0.1252
     28 C24        -5.5460    0.0617    3.5643 C.ar      1 <0>        -0.1241
     29 O3         -0.8467   -2.4505    4.2542 O.3       1 <0>        -0.6050
     30 H2         -2.5330   -7.1641    4.7539 H         1 <0>         0.0588
     31 H3         -3.9809   -6.2377    4.2916 H         1 <0>         0.0680
     32 H4         -2.8325   -6.7760    3.0427 H         1 <0>         0.0757
     33 H5         -1.6948   -3.8320    0.4628 H         1 <0>         0.1150
     34 H6         -1.2818   -5.4707   -1.3281 H         1 <0>         0.1149
     35 H7         -2.6843   -7.4873   -1.4991 H         1 <0>         0.1137
     36 H8         -4.4994   -7.8656    0.1212 H         1 <0>         0.1159
     37 H9         -4.9071   -6.2311    1.9172 H         1 <0>         0.1192
     38 H10        -3.8601   -1.2979    0.2111 H         1 <0>         0.0743
     39 H11        -4.7749   -2.8245    0.1816 H         1 <0>         0.0775
     40 H12        -5.8577   -3.2675    2.3832 H         1 <0>         0.0767
     41 H13        -6.3634   -1.9030    3.4194 H         1 <0>         0.0791
     42 H14        -8.1449   -3.4371    1.9535 H         1 <0>         0.0625
     43 H15        -8.4485   -1.7234    2.3788 H         1 <0>         0.0612
     44 H16        -7.2907   -2.8588   -0.2262 H         1 <0>         0.0666
     45 H17        -8.6143   -1.6641   -0.0228 H         1 <0>         0.0627
     46 H18        -7.0947    0.0649    0.6845 H         1 <0>         0.0693
     47 H19        -6.1288   -0.7738   -0.5699 H         1 <0>         0.0661
     48 H20        -3.9637    0.6652    0.6471 H         1 <0>         0.1107
     49 H21        -3.1883    2.6201    1.9279 H         1 <0>         0.1124
     50 H22        -3.9203    2.9347    4.2577 H         1 <0>         0.1121
     51 H23        -5.4283    1.2949    5.3066 H         1 <0>         0.1130
     52 H24        -6.2104   -0.6556    4.0231 H         1 <0>         0.1244
@<TRIPOS>BOND
     1    1    2 1
     2    1   30 1
     3    1   31 1
     4    1   32 1
     5    2    3 2
     6    2    4 1
     7    4    9 1
     8    4    5 2
     9    5    6 1
    10    5   29 1
    11    6    7 2
    12    6    8 am
    13    8    9 1
    14    8   17 1
    15    9   10 1
    16    9   11 1
    17   11   16 ar
    18   11   12 ar
    19   12   13 ar
    20   12   33 1
    21   13   14 ar
    22   13   34 1
    23   14   15 ar
    24   14   35 1
    25   15   16 ar
    26   15   36 1
    27   16   37 1
    28   17   18 1
    29   17   38 1
    30   17   39 1
    31   18   22 1
    32   18   19 1
    33   18   23 1
    34   19   20 1
    35   19   40 1
    36   19   41 1
    37   20   21 1
    38   20   42 1
    39   20   43 1
    40   21   22 1
    41   21   44 1
    42   21   45 1
    43   22   46 1
    44   22   47 1
    45   23   28 ar
    46   23   24 ar
    47   24   25 ar
    48   24   48 1
    49   25   26 ar
    50   25   49 1
    51   26   27 ar
    52   26   50 1
    53   27   28 ar
    54   27   51 1
    55   28   52 1
@<TRIPOS>MOLECULE
ZINC02309714
   42    45     0     0     0
SMALL
USER_CHARGES

@<TRIPOS>ATOM
      1 C1         -0.0187    1.5258    0.0104 C.3       1 <0>        -0.1380
      2 C2          0.0021   -0.0041    0.0020 C.3       1 <0>        -0.0892
      3 S1          0.8511   -0.5891   -1.4904 S.3       1 <0>        -0.1295
      4 C3          0.7923   -2.3448   -1.3538 C.2       1 <0>         0.2328
      5 C4          1.3700   -3.1120   -2.3510 C.2       1 <0>        -0.2209
      6 C5          1.2989   -4.6207   -2.1965 C.3       1 <0>         0.1329
      7 H1          2.3165   -5.0112   -2.1944 H         1 <0>         0.0500
      8 C6          0.5950   -5.1253   -0.9512 C.2       1 <0>        -0.3978
      9 C7          0.4875   -6.4453   -0.7299 C.2       1 <0>         0.3290
     10 C8         -0.2058   -6.9797    0.4951 C.3       1 <0>        -0.1298
     11 C9         -0.0577   -5.9728    1.6395 C.3       1 <0>        -0.1090
     12 C10        -0.6379   -4.6280    1.1936 C.3       1 <0>        -0.0767
     13 C11         0.0733   -4.1712   -0.0584 C.2       1 <0>         0.3005
     14 N1          0.1973   -2.8881   -0.2902 N.2       1 <0>        -0.6376
     15 O1          1.0105   -7.3095   -1.6226 O.3       1 <0>        -0.6298
     16 C12         0.5839   -5.1838   -3.3977 C.ar      1 <0>        -0.0235
     17 C13        -0.7119   -4.7906   -3.6761 C.ar      1 <0>        -0.0975
     18 C14        -1.3717   -5.3040   -4.7770 C.ar      1 <0>        -0.1064
     19 C15        -0.7352   -6.2150   -5.6043 C.ar      1 <0>         0.0054
     20 C16         0.5701   -6.6111   -5.3238 C.ar      1 <0>         0.0226
     21 C17         1.2273   -6.0881   -4.2219 C.ar      1 <0>        -0.0636
     22 O2          0.9689   -7.5047   -6.2755 O.3       1 <0>        -0.3149
     23 C18        -0.2425   -7.9610   -6.9061 C.3       1 <0>         0.2148
     24 O3         -1.1542   -6.8603   -6.7318 O.3       1 <0>        -0.3178
     25 C19         2.0080   -2.5076   -3.4816 C.1       1 <0>         0.2909
     26 N2          2.5140   -2.0281   -4.3785 N.1       1 <0>        -0.4796
     27 H2          1.0039    1.9031    0.0027 H         1 <0>         0.0602
     28 H3         -0.5459    1.8868   -0.8726 H         1 <0>         0.0603
     29 H4         -0.5289    1.8773    0.9072 H         1 <0>         0.0681
     30 H5          0.5293   -0.3651    0.8851 H         1 <0>         0.0870
     31 H6         -1.0205   -0.3814    0.0098 H         1 <0>         0.0871
     32 H7         -1.2632   -7.1309    0.2779 H         1 <0>         0.0788
     33 H8          0.2462   -7.9284    0.7843 H         1 <0>         0.0747
     34 H9         -0.5993   -6.3322    2.5144 H         1 <0>         0.0667
     35 H10         0.9974   -5.8519    1.8851 H         1 <0>         0.0660
     36 H11        -1.7022   -4.7410    0.9874 H         1 <0>         0.0815
     37 H12        -0.4954   -3.8901    1.9831 H         1 <0>         0.0790
     38 H13        -1.2099   -4.0811   -3.0319 H         1 <0>         0.1269
     39 H14        -2.3840   -4.9950   -4.9922 H         1 <0>         0.1238
     40 H15         2.2411   -6.3901   -4.0045 H         1 <0>         0.1255
     41 H16        -0.0735   -8.1544   -7.9654 H         1 <0>         0.1218
     42 H17        -0.6205   -8.8540   -6.4082 H         1 <0>         0.0756
@<TRIPOS>BOND
     1    1    2 1
     2    1   27 1
     3    1   28 1
     4    1   29 1
     5    2    3 1
     6    2   30 1
     7    2   31 1
     8    3    4 1
     9    4   14 1
    10    4    5 2
    11    5    6 1
    12    5   25 1
    13    6    7 1
    14    6    8 1
    15    6   16 1
    16    8   13 1
    17    8    9 2
    18    9   10 1
    19    9   15 1
    20   10   11 1
    21   10   32 1
    22   10   33 1
    23   11   12 1
    24   11   34 1
    25   11   35 1
    26   12   13 1
    27   12   36 1
    28   12   37 1
    29   13   14 2
    30   16   21 ar
    31   16   17 ar
    32   17   18 ar
    33   17   38 1
    34   18   19 ar
    35   18   39 1
    36   19   24 1
    37   19   20 ar
    38   20   21 ar
    39   20   22 1
    40   21   40 1
    41   22   23 1
    42   23   24 1
    43   23   41 1
    44   23   42 1
    45   25   26 3
@<TRIPOS>MOLECULE
ZINC04691626
   44    47     0     0     0
SMALL
USER_CHARGES
4-(chloro-methoxycarbonyl-BLAHyl)benzoic acid
@<TRIPOS>ATOM
      1 C1         -4.7868    6.1524   -5.3141 C.3       1 <0>         0.0324
      2 O1         -4.5979    6.5586   -3.9329 O.3       1 <0>        -0.3534
      3 C2         -4.1727    5.6149   -3.0706 C.2       1 <0>         0.5116
      4 O2         -3.9654    4.4837   -3.4618 O.2       1 <0>        -0.4786
      5 C3         -3.9586    5.9556   -1.6497 C.ar      1 <0>        -0.0797
      6 C4         -4.9919    6.5332   -0.9095 C.ar      1 <0>        -0.0926
      7 C5         -4.7811    6.8486    0.4168 C.ar      1 <0>        -0.0945
      8 C6         -3.5590    6.6030    1.0079 C.ar      1 <0>        -0.0469
      9 C7         -2.5082    6.0304    0.2841 C.ar      1 <0>         0.1489
     10 C8         -2.7260    5.7000   -1.0527 C.ar      1 <0>        -0.0451
     11 C9         -1.6200    5.0577   -1.7960 C.3       1 <0>        -0.0569
     12 H1         -1.6232    3.9933   -1.5613 H         1 <0>         0.1245
     13 C10        -1.4470    5.2093   -3.2615 C.2       1 <0>        -0.1508
     14 C11        -0.1484    5.1692   -3.5397 C.2       1 <0>        -0.1668
     15 C12         0.6579    5.0214   -2.2468 C.3       1 <0>        -0.0878
     16 C13        -0.2938    5.6471   -1.2214 C.3       1 <0>        -0.1200
     17 H2         -0.2826    6.7364   -1.2572 H         1 <0>         0.0894
     18 C14        -0.2371    5.1399    0.2046 C.3       1 <0>         0.1535
     19 H3          0.7342    5.3685    0.6433 H         1 <0>         0.1053
     20 N1         -1.3002    5.8312    0.9515 N.pl3     1 <0>        -0.6287
     21 C15        -0.4749    3.6521    0.2306 C.ar      1 <0>        -0.0917
     22 C16        -1.7538    3.1625    0.4289 C.ar      1 <0>        -0.1162
     23 C17        -1.9786    1.8017    0.4539 C.ar      1 <0>        -0.0857
     24 C18        -0.9120    0.9178    0.2789 C.ar      1 <0>        -0.1072
     25 C19         0.3770    1.4187    0.0856 C.ar      1 <0>        -0.0773
     26 C20         0.5866    2.7818    0.0566 C.ar      1 <0>        -0.1314
     27 C21        -1.1451   -0.5407    0.3044 C.2       1 <0>         0.4876
     28 O3         -2.2668   -0.9735    0.4779 O.co2     1 <0>        -0.6306
     29 Cl1        -3.3214    7.0120    2.6783 Cl        1 <0>        -0.0541
     30 H4         -3.8417    5.7903   -5.7188 H         1 <0>         0.0641
     31 H5         -5.5305    5.3569   -5.3604 H         1 <0>         0.0658
     32 H6         -5.1300    7.0052   -5.8998 H         1 <0>         0.1032
     33 H7         -5.9480    6.7310   -1.3712 H         1 <0>         0.1409
     34 H8         -5.5780    7.2912    0.9961 H         1 <0>         0.1425
     35 H9         -2.2429    5.3317   -3.9813 H         1 <0>         0.1282
     36 H10         0.2754    5.2313   -4.5311 H         1 <0>         0.1283
     37 H11         0.8430    3.9717   -2.0191 H         1 <0>         0.0944
     38 H12         1.5931    5.5785   -2.3033 H         1 <0>         0.0727
     39 H13        -0.9603    6.6939    1.3493 H         1 <0>         0.3699
     40 H14        -2.5779    3.8473    0.5641 H         1 <0>         0.1166
     41 H15        -2.9773    1.4209    0.6087 H         1 <0>         0.1243
     42 H16         1.2072    0.7404   -0.0456 H         1 <0>         0.1307
     43 H17         1.5823    3.1706   -0.0977 H         1 <0>         0.1166
     44 O4         -0.1139   -1.3907    0.1353 O.co2     1 <0>        -0.7551
@<TRIPOS>BOND
     1    1    2 1
     2    1   30 1
     3    1   31 1
     4    1   32 1
     5    2    3 1
     6    3    4 2
     7    3    5 1
     8    5   10 ar
     9    5    6 ar
    10    6    7 ar
    11    6   33 1
    12    7    8 ar
    13    7   34 1
    14    8    9 ar
    15    8   29 1
    16    9   20 1
    17    9   10 ar
    18   10   11 1
    19   11   12 1
    20   11   16 1
    21   11   13 1
    22   13   14 2
    23   13   35 1
    24   14   15 1
    25   14   36 1
    26   15   16 1
    27   15   37 1
    28   15   38 1
    29   16   17 1
    30   16   18 1
    31   18   19 1
    32   18   20 1
    33   18   21 1
    34   20   39 1
    35   21   26 ar
    36   21   22 ar
    37   22   23 ar
    38   22   40 1
    39   23   24 ar
    40   23   41 1
    41   24   25 ar
    42   24   27 1
    43   25   26 ar
    44   25   42 1
    45   26   43 1
    46   27   28 2
    47   27   44 1
@<TRIPOS>MOLECULE
ZINC13307446
   49    52     0     0     0
SMALL
USER_CHARGES
3-(1-adamantylmethylsulfamoyl)-4-methyl-benzoic acid
@<TRIPOS>ATOM
      1 C1          0.4400    4.1058    2.4645 C.3       1 <0>        -0.1623
      2 C2         -0.0964    3.3766    1.2597 C.ar      1 <0>         0.0091
      3 C3         -1.4112    2.9451    1.2446 C.ar      1 <0>        -0.1595
      4 C4         -1.9071    2.2725    0.1474 C.ar      1 <0>        -0.0188
      5 C5         -1.0819    2.0361   -0.9542 C.ar      1 <0>        -0.1374
      6 C6          0.2436    2.4738   -0.9322 C.ar      1 <0>         0.0142
      7 C7          0.7280    3.1412    0.1739 C.ar      1 <0>        -0.6930
      8 S1          2.4006    3.6944    0.2039 S.o2      1 <0>         2.6987
      9 O1          2.9988    3.2451   -1.0043 O.2       1 <0>        -0.9577
     10 O2          2.3681    5.0661    0.5736 O.2       1 <0>        -0.9653
     11 N1          3.1604    2.8900    1.4359 N.pl3     1 <0>        -1.1154
     12 C8          3.3549    1.4403    1.3540 C.3       1 <0>         0.1242
     13 C9          4.3613    0.9997    2.4188 C.3       1 <0>        -0.0561
     14 C10         5.6969    1.7076    2.1821 C.3       1 <0>        -0.1043
     15 C11         6.7033    1.2670    3.2470 C.3       1 <0>        -0.0863
     16 C12         6.9064   -0.2470    3.1614 C.3       1 <0>        -0.1081
     17 C13         5.5708   -0.9549    3.3981 C.3       1 <0>        -0.0841
     18 C14         4.5644   -0.5143    2.3333 C.3       1 <0>        -0.1044
     19 C15         5.0386   -0.5893    4.7852 C.3       1 <0>        -0.1079
     20 C16         4.8355    0.9248    4.8707 C.3       1 <0>        -0.0854
     21 C17         6.1711    1.6327    4.6341 C.3       1 <0>        -0.1082
     22 C18         3.8291    1.3653    3.8059 C.3       1 <0>        -0.1040
     23 C19        -1.6078    1.3213   -2.1353 C.2       1 <0>         0.4898
     24 O3         -0.8864    1.1132   -3.0901 O.co2     1 <0>        -0.6243
     25 H1          0.9550    3.4004    3.1166 H         1 <0>         0.0790
     26 H2          1.1382    4.8777    2.1409 H         1 <0>         0.0963
     27 H3         -0.3852    4.5667    3.0073 H         1 <0>         0.0785
     28 H4         -2.0491    3.1315    2.0959 H         1 <0>         0.1256
     29 H5         -2.9322    1.9327    0.1386 H         1 <0>         0.1386
     30 H6          0.8884    2.2900   -1.7789 H         1 <0>         0.1472
     31 H7          3.4767    3.3787    2.2118 H         1 <0>         0.4141
     32 H8          2.4034    0.9360    1.5226 H         1 <0>         0.0693
     33 H9          3.7340    1.1798    0.3658 H         1 <0>         0.0834
     34 H10         6.0761    1.4471    1.1940 H         1 <0>         0.0672
     35 H11         5.5522    2.7862    2.2431 H         1 <0>         0.0649
     36 H12         7.6548    1.7713    3.0784 H         1 <0>         0.0683
     37 H13         7.6234   -0.5609    3.9200 H         1 <0>         0.0590
     38 H14         7.2856   -0.5075    2.1733 H         1 <0>         0.0621
     39 H15         5.7155   -2.0335    3.3372 H         1 <0>         0.0696
     40 H16         3.6129   -1.0186    2.5019 H         1 <0>         0.0673
     41 H17         4.9435   -0.7748    1.3451 H         1 <0>         0.0681
     42 H18         4.0871   -1.0936    4.9538 H         1 <0>         0.0617
     43 H19         5.7556   -0.9031    5.5438 H         1 <0>         0.0591
     44 H20         4.4564    1.1853    5.8589 H         1 <0>         0.0683
     45 H21         6.8881    1.3188    5.3927 H         1 <0>         0.0592
     46 H22         6.0265    2.7113    4.6950 H         1 <0>         0.0611
     47 H23         3.6844    2.4440    3.8669 H         1 <0>         0.0633
     48 H24         2.8776    0.8610    3.9745 H         1 <0>         0.0669
     49 O4         -2.8873    0.9003   -2.1533 O.co2     1 <0>        -0.7518
@<TRIPOS>BOND
     1    1    2 1
     2    1   25 1
     3    1   26 1
     4    1   27 1
     5    2    7 ar
     6    2    3 ar
     7    3    4 ar
     8    3   28 1
     9    4    5 ar
    10    4   29 1
    11    5    6 ar
    12    5   23 1
    13    6    7 ar
    14    6   30 1
    15    7    8 1
    16    8    9 2
    17    8   10 2
    18    8   11 1
    19   11   12 1
    20   11   31 1
    21   12   13 1
    22   12   32 1
    23   12   33 1
    24   13   18 1
    25   13   22 1
    26   13   14 1
    27   14   15 1
    28   14   34 1
    29   14   35 1
    30   15   21 1
    31   15   16 1
    32   15   36 1
    33   16   17 1
    34   16   37 1
    35   16   38 1
    36   17   18 1
    37   17   19 1
    38   17   39 1
    39   18   40 1
    40   18   41 1
    41   19   20 1
    42   19   42 1
    43   19   43 1
    44   20   21 1
    45   20   22 1
    46   20   44 1
    47   21   45 1
    48   21   46 1
    49   22   47 1
    50   22   48 1
    51   23   24 2
    52   23   49 1
@<TRIPOS>MOLECULE
ZINC36357634
   40    43     0     0     0
SMALL
USER_CHARGES

@<TRIPOS>ATOM
      1 C1         -0.0167    1.3792    0.0096 C.ar      1 <0>        -0.1144
      2 C2          1.1686    2.0925    0.0021 C.ar      1 <0>        -0.1196
      3 C3          2.3774    1.4271   -0.0129 C.ar      1 <0>        -0.1055
      4 C4          2.4026    0.0331   -0.0206 C.ar      1 <0>        -0.0558
      5 C5          1.2048   -0.6804   -0.0130 C.ar      1 <0>        -0.1046
      6 C6          0.0021   -0.0041    0.0020 C.ar      1 <0>        -0.1188
      7 C7          3.6979   -0.6876   -0.0373 C.ar      1 <0>        -0.0098
      8 C8          4.8947    0.0304   -0.0395 C.ar      1 <0>        -0.1256
      9 C9          6.0939   -0.6339   -0.0545 C.ar      1 <0>        -0.0517
     10 C10         6.1173   -2.0337   -0.0675 C.ar      1 <0>        -0.1628
     11 C11         4.9154   -2.7517   -0.0653 C.ar      1 <0>        -0.0642
     12 C12         3.7187   -2.0831   -0.0449 C.ar      1 <0>        -0.1239
     13 C13         7.4017   -2.7483   -0.0841 C.2       1 <0>         0.4176
     14 O1          8.4422   -2.1253   -0.0864 O.2       1 <0>        -0.4334
     15 C14         7.4255   -4.2551   -0.0981 C.3       1 <0>        -0.1732
     16 S1          9.1451   -4.8325   -0.1168 S.3       1 <0>         0.0665
     17 C15         9.0048   -6.5888   -0.1318 C.2       1 <0>        -0.0004
     18 N1          7.9068   -7.3160   -0.1358 N.2       1 <0>        -0.5425
     19 C16         7.9374   -8.6461   -0.1475 C.2       1 <0>         0.3219
     20 C17         9.2292   -9.1850   -0.1551 C.2       1 <0>        -0.2575
     21 S2         10.2433   -7.7295   -0.1520 S.3       1 <0>         0.2469
     22 C18         9.4631  -10.5534   -0.1676 C.2       1 <0>         0.3554
     23 C19         8.3727  -11.4151   -0.1727 C.2       1 <0>        -0.4419
     24 C20         7.0867  -10.8719   -0.1652 C.2       1 <0>         0.5434
     25 O2          6.1240  -11.6239   -0.1693 O.2       1 <0>        -0.6117
     26 N2          6.8794   -9.5472   -0.1535 N.am      1 <0>        -0.6115
     27 H1          5.9699   -9.2100   -0.1483 H         1 <0>         0.3956
     28 O3         10.7282  -11.0387   -0.1750 O.3       1 <0>        -0.6832
     29 H2         -0.9603    1.9042    0.0260 H         1 <0>         0.1236
     30 H3          1.1478    3.1723    0.0077 H         1 <0>         0.1253
     31 H4          3.3021    1.9850   -0.0191 H         1 <0>         0.1272
     32 H5          1.2182   -1.7603   -0.0193 H         1 <0>         0.1282
     33 H6         -0.9264   -0.5557    0.0079 H         1 <0>         0.1260
     34 H7          4.8762    1.1102   -0.0298 H         1 <0>         0.1330
     35 H8          7.0197   -0.0779   -0.0565 H         1 <0>         0.1387
     36 H9          4.9310   -3.8316   -0.0757 H         1 <0>         0.1382
     37 H10         2.7914   -2.6366   -0.0387 H         1 <0>         0.1340
     38 H11         6.9244   -4.6347    0.7923 H         1 <0>         0.1301
     39 H12         6.9106   -4.6183   -0.9875 H         1 <0>         0.1302
     40 H13         8.5176  -12.4853   -0.1828 H         1 <0>         0.1302
@<TRIPOS>BOND
     1    1    6 ar
     2    1    2 ar
     3    1   29 1
     4    2    3 ar
     5    2   30 1
     6    3    4 ar
     7    3   31 1
     8    4    5 ar
     9    4    7 1
    10    5    6 ar
    11    5   32 1
    12    6   33 1
    13    7   12 ar
    14    7    8 ar
    15    8    9 ar
    16    8   34 1
    17    9   10 ar
    18    9   35 1
    19   10   11 ar
    20   10   13 1
    21   11   12 ar
    22   11   36 1
    23   12   37 1
    24   13   14 2
    25   13   15 1
    26   15   16 1
    27   15   38 1
    28   15   39 1
    29   16   17 1
    30   17   21 1
    31   17   18 2
    32   18   19 1
    33   19   26 1
    34   19   20 2
    35   20   21 1
    36   20   22 1
    37   22   23 2
    38   22   28 1
    39   23   24 1
    40   23   40 1
    41   24   25 2
    42   24   26 am
    43   26   27 1
@<TRIPOS>MOLECULE
ZINC46620521
   41    43     0     0     0
SMALL
USER_CHARGES

@<TRIPOS>ATOM
      1 C1         -0.3398    1.4892    0.1316 C.3       1 <0>        -0.1106
      2 C2         -0.2491   -0.0147    0.0968 C.ar      1 <0>        -0.0961
      3 C3         -0.2300   -0.6756   -1.1186 C.ar      1 <0>        -0.1149
      4 C4         -0.1471   -2.0521   -1.1575 C.ar      1 <0>        -0.0855
      5 C5         -0.0825   -2.7781    0.0329 C.ar      1 <0>         0.0201
      6 C6         -0.1022   -2.1052    1.2556 C.ar      1 <0>        -0.1219
      7 C7         -0.1797   -0.7280    1.2803 C.ar      1 <0>        -0.1140
      8 C8          0.0059   -4.2535   -0.0013 C.2       1 <0>         0.1522
      9 N1         -0.3224   -5.0317   -1.0061 N.2       1 <0>        -0.2706
     10 N2         -0.1183   -6.2614   -0.6935 N.2       1 <0>        -0.3395
     11 C9          0.3532   -6.3436    0.5307 C.2       1 <0>         0.3899
     12 S1          0.7828   -7.8216    1.3882 S.3       1 <0>        -0.7983
     13 N3          0.4536   -5.0695    1.0120 N.pl3     1 <0>        -0.4743
     14 C10         0.9347   -4.6576    2.3331 C.3       1 <0>         0.0985
     15 C11        -0.2143   -4.6563    3.3082 C.2       1 <0>         0.5092
     16 O1         -1.3256   -4.9686    2.9363 O.2       1 <0>        -0.5005
     17 N4         -0.0069   -4.3080    4.5935 N.am      1 <0>        -0.7312
     18 C12        -1.1239   -4.3067    5.5415 C.3       1 <0>         0.2299
     19 H1         -1.8078   -5.1198    5.2982 H         1 <0>         0.1140
     20 C13        -1.8664   -2.9719    5.4528 C.3       1 <0>        -0.1597
     21 C14        -0.5959   -4.4959    6.9402 C.2       1 <0>        -0.1380
     22 C15        -1.1051   -5.2414    7.9507 C.2       1 <0>        -0.1415
     23 C16        -0.4437   -5.2668    9.1648 C.2       1 <0>        -0.1308
     24 C17         0.6954   -4.5442    9.3076 C.2       1 <0>        -0.1234
     25 S2          0.8667   -3.8021    7.6929 S.3       1 <0>         0.0951
     26 Cl1         1.7236   -4.3873   10.6975 Cl        1 <0>         0.0141
     27 H2          0.6639    1.9141    0.1174 H         1 <0>         0.0674
     28 H3         -0.8951    1.8399   -0.7383 H         1 <0>         0.0644
     29 H4         -0.8536    1.8013    1.0408 H         1 <0>         0.0632
     30 H5         -0.2804   -0.1126   -2.0389 H         1 <0>         0.1242
     31 H6         -0.1326   -2.5668   -2.1068 H         1 <0>         0.1341
     32 H7         -0.0525   -2.6612    2.1801 H         1 <0>         0.1165
     33 H8         -0.1906   -0.2059    2.2256 H         1 <0>         0.1210
     34 H9          1.7002   -5.3545    2.6745 H         1 <0>         0.1288
     35 H10         1.3583   -3.6553    2.2692 H         1 <0>         0.1138
     36 H11         0.8819   -4.0582    4.8910 H         1 <0>         0.3987
     37 H12        -1.1825   -2.1588    5.6961 H         1 <0>         0.0615
     38 H13        -2.2483   -2.8350    4.4411 H         1 <0>         0.0737
     39 H14        -2.6975   -2.9709    6.1581 H         1 <0>         0.0712
     40 H15        -2.0142   -5.8072    7.8100 H         1 <0>         0.1455
     41 H16        -0.8283   -5.8525    9.9866 H         1 <0>         0.1436
@<TRIPOS>BOND
     1    1    2 1
     2    1   27 1
     3    1   28 1
     4    1   29 1
     5    2    7 ar
     6    2    3 ar
     7    3    4 ar
     8    3   30 1
     9    4    5 ar
    10    4   31 1
    11    5    6 ar
    12    5    8 1
    13    6    7 ar
    14    6   32 1
    15    7   33 1
    16    8   13 1
    17    8    9 2
    18    9   10 1
    19   10   11 2
    20   11   12 1
    21   11   13 1
    22   13   14 1
    23   14   15 1
    24   14   34 1
    25   14   35 1
    26   15   16 2
    27   15   17 am
    28   17   18 1
    29   17   36 1
    30   18   19 1
    31   18   20 1
    32   18   21 1
    33   20   37 1
    34   20   38 1
    35   20   39 1
    36   21   25 1
    37   21   22 2
    38   22   23 1
    39   22   40 1
    40   23   24 2
    41   23   41 1
    42   24   25 1
    43   24   26 1
@<TRIPOS>MOLECULE
ZINC41843937
   48    51     0     0     0
SMALL
USER_CHARGES

@<TRIPOS>ATOM
      1 C1         -0.0004    1.5408    0.0886 C.3       1 <0>        -0.1103
      2 C2          0.0184    0.0342    0.0622 C.ar      1 <0>        -0.0960
      3 C3          0.0219   -0.6335   -1.1496 C.ar      1 <0>        -0.1148
      4 C4          0.0387   -2.0126   -1.1807 C.ar      1 <0>        -0.0859
      5 C5          0.0525   -2.7344    0.0138 C.ar      1 <0>         0.0209
      6 C6          0.0494   -2.0547    1.2329 C.ar      1 <0>        -0.1215
      7 C7          0.0378   -0.6753    1.2500 C.ar      1 <0>        -0.1138
      8 C8          0.0700   -4.2125   -0.0120 C.2       1 <0>         0.1510
      9 N1         -0.2805   -4.9794   -1.0181 N.2       1 <0>        -0.2710
     10 N2         -0.1408   -6.2157   -0.6967 N.2       1 <0>        -0.3405
     11 C9          0.3077   -6.3140    0.5350 C.2       1 <0>         0.3911
     12 N3          0.4623   -5.0436    1.0118 N.pl3     1 <0>        -0.4729
     13 C10         0.9434   -4.6483    2.3379 C.3       1 <0>         0.0975
     14 C11        -0.2095   -4.6397    3.3084 C.2       1 <0>         0.5063
     15 O1         -1.3232   -4.9347    2.9297 O.2       1 <0>        -0.4886
     16 N4         -0.0028   -4.3042    4.5973 N.am      1 <0>        -0.7157
     17 C12        -1.0965   -4.4101    5.5662 C.3       1 <0>         0.1921
     18 C13        -0.6203   -4.6441    7.0096 C.3       1 <0>        -0.1278
     19 C14        -0.6771   -6.1495    6.7007 C.3       1 <0>        -0.1389
     20 C15        -1.7286   -5.8104    5.6311 C.3       1 <0>        -0.1370
     21 C16        -2.1050   -3.2980    5.4341 C.ar      1 <0>        -0.0661
     22 C17        -3.3388   -3.4074    6.0479 C.ar      1 <0>        -0.1130
     23 C18        -4.2639   -2.3874    5.9267 C.ar      1 <0>        -0.1194
     24 C19        -3.9550   -1.2578    5.1922 C.ar      1 <0>        -0.1261
     25 C20        -2.7208   -1.1480    4.5792 C.ar      1 <0>        -0.1169
     26 C21        -1.7942   -2.1662    4.7039 C.ar      1 <0>        -0.1024
     27 S1          0.6510   -7.8064    1.4064 S.3       1 <0>        -0.7986
     28 H1          1.0227    1.9170    0.0859 H         1 <0>         0.0673
     29 H2         -0.5267    1.9130   -0.7904 H         1 <0>         0.0644
     30 H3         -0.5106    1.8821    0.9893 H         1 <0>         0.0630
     31 H4          0.0112   -0.0738   -2.0732 H         1 <0>         0.1239
     32 H5          0.0407   -2.5326   -2.1273 H         1 <0>         0.1338
     33 H6          0.0597   -2.6074    2.1607 H         1 <0>         0.1164
     34 H7          0.0398   -0.1480    2.1925 H         1 <0>         0.1200
     35 H8          1.6984   -5.3577    2.6768 H         1 <0>         0.1255
     36 H9          1.3801   -3.6511    2.2836 H         1 <0>         0.1107
     37 H10         0.8701   -3.9926    4.8834 H         1 <0>         0.4000
     38 H11         0.3873   -4.2756    7.2021 H         1 <0>         0.0738
     39 H12        -1.3399   -4.3257    7.7638 H         1 <0>         0.0943
     40 H13         0.2513   -6.5463    6.2900 H         1 <0>         0.0849
     41 H14        -1.0680   -6.7494    7.5226 H         1 <0>         0.0702
     42 H15        -2.7512   -5.8109    6.0085 H         1 <0>         0.0888
     43 H16        -1.6158   -6.3835    4.7108 H         1 <0>         0.0888
     44 H17        -3.5801   -4.2899    6.6217 H         1 <0>         0.1219
     45 H18        -5.2281   -2.4731    6.4056 H         1 <0>         0.1197
     46 H19        -4.6780   -0.4612    5.0970 H         1 <0>         0.1180
     47 H20        -2.4796   -0.2657    4.0051 H         1 <0>         0.1185
     48 H21        -0.8286   -2.0788    4.2281 H         1 <0>         0.1144
@<TRIPOS>BOND
     1    1    2 1
     2    1   28 1
     3    1   29 1
     4    1   30 1
     5    2    7 ar
     6    2    3 ar
     7    3    4 ar
     8    3   31 1
     9    4    5 ar
    10    4   32 1
    11    5    6 ar
    12    5    8 1
    13    6    7 ar
    14    6   33 1
    15    7   34 1
    16    8   12 1
    17    8    9 2
    18    9   10 1
    19   10   11 2
    20   11   27 1
    21   11   12 1
    22   12   13 1
    23   13   14 1
    24   13   35 1
    25   13   36 1
    26   14   15 2
    27   14   16 am
    28   16   17 1
    29   16   37 1
    30   17   20 1
    31   17   18 1
    32   17   21 1
    33   18   19 1
    34   18   38 1
    35   18   39 1
    36   19   20 1
    37   19   40 1
    38   19   41 1
    39   20   42 1
    40   20   43 1
    41   21   26 ar
    42   21   22 ar
    43   22   23 ar
    44   22   44 1
    45   23   24 ar
    46   23   45 1
    47   24   25 ar
    48   24   46 1
    49   25   26 ar
    50   25   47 1
    51   26   48 1
@<TRIPOS>MOLECULE
ZINC64796669
   46    49     0     0     0
SMALL
USER_CHARGES

@<TRIPOS>ATOM
      1 C1         -0.4449    1.4643    0.0718 C.3       1 <0>        -0.1211
      2 C2         -0.2020   -0.0225    0.0314 C.ar      1 <0>        -0.0737
      3 C3         -0.3028   -0.7072   -1.1654 C.ar      1 <0>        -0.1213
      4 C4         -0.0800   -2.0707   -1.2025 C.ar      1 <0>        -0.1150
      5 C5          0.2441   -2.7499   -0.0427 C.ar      1 <0>        -0.1221
      6 C6          0.3458   -2.0653    1.1536 C.ar      1 <0>        -0.0962
      7 C7          0.1272   -0.7006    1.1899 C.ar      1 <0>        -0.0804
      8 C8          0.2432    0.0467    2.4934 C.3       1 <0>         0.0486
      9 H1          0.1212    1.1153    2.3165 H         1 <0>         0.0999
     10 C9         -0.8352   -0.4426    3.4678 C.3       1 <0>        -0.1222
     11 C10        -0.5001   -0.0368    4.8750 C.2       1 <0>         0.5237
     12 O1         -1.4015    0.3110    5.6085 O.2       1 <0>        -0.5468
     13 N1          0.7543   -0.0424    5.3568 N.am      1 <0>        -0.6446
     14 C11         1.8362   -0.2522    4.4545 C.2       1 <0>         0.1181
     15 C12         1.5861   -0.2140    3.1079 C.2       1 <0>        -0.3155
     16 S1          3.0432   -0.5079    2.3578 S.3       1 <0>         0.2559
     17 C13         4.0792   -0.6593    3.8020 C.2       1 <0>        -0.1487
     18 C14         3.1566   -0.4752    4.8422 C.2       1 <0>        -0.0952
     19 C15         3.5607   -0.5111    6.2653 C.ar      1 <0>        -0.0310
     20 C16         3.4532    0.6367    7.0522 C.ar      1 <0>        -0.0789
     21 C17         3.8306    0.5995    8.3774 C.ar      1 <0>        -0.1548
     22 C18         4.3173   -0.5782    8.9298 C.ar      1 <0>         0.1179
     23 C19         4.4257   -1.7222    8.1499 C.ar      1 <0>        -0.2037
     24 C20         4.0448   -1.6942    6.8255 C.ar      1 <0>        -0.0180
     25 O2          4.6887   -0.6109   10.2361 O.3       1 <0>        -0.3225
     26 C21         5.1806   -1.8545   10.7397 C.3       1 <0>         0.0289
     27 C22         5.4679   -0.9041    3.8784 C.2       1 <0>         0.5446
     28 O3          6.1232   -1.0429    2.8519 O.co2     1 <0>        -0.6796
     29 O4          6.0181   -0.9776    4.9713 O.co2     1 <0>        -0.6523
     30 H2          0.5071    1.9901   -0.0009 H         1 <0>         0.0743
     31 H3         -1.0830    1.7510   -0.7641 H         1 <0>         0.0663
     32 H4         -0.9344    1.7271    1.0095 H         1 <0>         0.0692
     33 H5         -0.5560   -0.1766   -2.0714 H         1 <0>         0.1208
     34 H6         -0.1595   -2.6057   -2.1373 H         1 <0>         0.1200
     35 H7          0.4175   -3.8155   -0.0715 H         1 <0>         0.1218
     36 H8          0.5987   -2.5960    2.0597 H         1 <0>         0.1219
     37 H9         -1.7955   -0.0096    3.1880 H         1 <0>         0.1069
     38 H10        -0.9022   -1.5292    3.4136 H         1 <0>         0.1031
     39 H11         0.9201    0.0937    6.3027 H         1 <0>         0.4104
     40 H12         3.0751    1.5529    6.6232 H         1 <0>         0.1215
     41 H13         3.7481    1.4873    8.9868 H         1 <0>         0.1251
     42 H14         4.8046   -2.6362    8.5829 H         1 <0>         0.1232
     43 H15         4.1248   -2.5855    6.2209 H         1 <0>         0.1195
     44 H16         5.4407   -1.7429   11.7923 H         1 <0>         0.0941
     45 H17         4.4107   -2.6190   10.6349 H         1 <0>         0.0519
     46 H18         6.0654   -2.1503   10.1762 H         1 <0>         0.0556
@<TRIPOS>BOND
     1    1    2 1
     2    1   30 1
     3    1   31 1
     4    1   32 1
     5    2    7 ar
     6    2    3 ar
     7    3    4 ar
     8    3   33 1
     9    4    5 ar
    10    4   34 1
    11    5    6 ar
    12    5   35 1
    13    6    7 ar
    14    6   36 1
    15    7    8 1
    16    8    9 1
    17    8   15 1
    18    8   10 1
    19   10   11 1
    20   10   37 1
    21   10   38 1
    22   11   12 2
    23   11   13 am
    24   13   14 1
    25   13   39 1
    26   14   18 1
    27   14   15 2
    28   15   16 1
    29   16   17 1
    30   17   18 2
    31   17   27 1
    32   18   19 1
    33   19   24 ar
    34   19   20 ar
    35   20   21 ar
    36   20   40 1
    37   21   22 ar
    38   21   41 1
    39   22   23 ar
    40   22   25 1
    41   23   24 ar
    42   23   42 1
    43   24   43 1
    44   25   26 1
    45   26   44 1
    46   26   45 1
    47   26   46 1
    48   27   28 2
    49   27   29 1
@<TRIPOS>MOLECULE
ZINC19827443
   34    35     0     0     0
SMALL
USER_CHARGES
allyl (4R)-5-cyano-4-(2-furyl)-2-methyl-6-sulfanyl-1,4-dihydropyridine-3-carboxylate
@<TRIPOS>ATOM
      1 C1         -0.3307   -4.0140   -2.5154 C.3       1 <0>        -0.2349
      2 C2          0.1527   -3.3816   -1.2357 C.2       1 <0>         0.2873
      3 C3          1.1998   -2.5401   -1.2680 C.2       1 <0>        -0.3150
      4 C4          1.7170   -1.8750   -0.0249 C.3       1 <0>         0.1473
      5 H1          2.8151   -1.9399   -0.0245 H         1 <0>         0.0986
      6 C5          1.1963   -2.5628    1.2052 C.2       1 <0>        -0.2373
      7 C6          0.1369   -3.4132    1.1430 C.2       1 <0>         0.3755
      8 N1         -0.4817   -3.6722   -0.0598 N.pl3     1 <0>        -0.6289
      9 S1         -0.4484   -4.1898    2.6124 S.3       1 <0>        -0.8474
     10 C7          1.8272   -2.3178    2.4672 C.1       1 <0>         0.3170
     11 N2          2.3277   -2.1235    3.4683 N.1       1 <0>        -0.4896
     12 C8          1.2742   -0.4346   -0.0124 C.2       1 <0>         0.0318
     13 C9          2.0859    0.6380   -0.0144 C.2       1 <0>        -0.2212
     14 C10         1.2541    1.7812   -0.0004 C.2       1 <0>        -0.2139
     15 C11        -0.0161    1.3388    0.0094 C.2       1 <0>        -0.0628
     16 O1          0.0021   -0.0041    0.0020 O.3       1 <0>        -0.1647
     17 C12         1.8311   -2.2741   -2.5044 C.2       1 <0>         0.5409
     18 O2          1.4249   -2.8045   -3.5216 O.2       1 <0>        -0.5296
     19 O3          2.8842   -1.4318   -2.5569 O.3       1 <0>        -0.3370
     20 C13         3.4734   -1.2089   -3.8396 C.3       1 <0>         0.0922
     21 C14         4.6264   -0.2482   -3.7027 C.2       1 <0>        -0.1521
     22 C15         5.7603   -0.4950   -4.3106 C.2       1 <0>        -0.1830
     23 H2          0.2926   -3.6685   -3.3534 H         1 <0>         0.1920
     24 H3         -1.3773   -3.7264   -2.6940 H         1 <0>         0.0706
     25 H4         -0.2602   -5.1086   -2.4329 H         1 <0>         0.0737
     26 H5         -1.4890   -4.1141   -0.0729 H         1 <0>         0.4422
     27 H6          3.1658    0.6279   -0.0243 H         1 <0>         0.1412
     28 H7          1.5768    2.8119    0.0021 H         1 <0>         0.1389
     29 H8         -0.9007    1.9584    0.0171 H         1 <0>         0.1922
     30 H9          3.8380   -2.1636   -4.2465 H         1 <0>         0.0707
     31 H10         2.7208   -0.7839   -4.5200 H         1 <0>         0.0750
     32 H11         4.5159    0.6602   -3.0924 H         1 <0>         0.1226
     33 H12         6.6019    0.2062   -4.2107 H         1 <0>         0.1073
     34 H13         5.8708   -1.4034   -4.9209 H         1 <0>         0.1003
@<TRIPOS>BOND
     1    1    2 1
     2    1   23 1
     3    1   24 1
     4    1   25 1
     5    2    8 1
     6    2    3 2
     7    3    4 1
     8    3   17 1
     9    4    5 1
    10    4    6 1
    11    4   12 1
    12    6    7 2
    13    6   10 1
    14    7    8 1
    15    7    9 1
    16    8   26 1
    17   10   11 3
    18   12   16 1
    19   12   13 2
    20   13   14 1
    21   13   27 1
    22   14   15 2
    23   14   28 1
    24   15   16 1
    25   15   29 1
    26   17   18 2
    27   17   19 1
    28   19   20 1
    29   20   21 1
    30   20   30 1
    31   20   31 1
    32   21   22 2
    33   21   32 1
    34   22   33 1
    35   22   34 1
@<TRIPOS>MOLECULE
ZINC40358207
   43    44     0     0     0
SMALL
USER_CHARGES

@<TRIPOS>ATOM
      1 C1         -0.4842    1.8774    0.1166 C.3       1 <0>        -0.1468
      2 C2         -0.1628    0.3867   -0.0074 C.3       1 <0>        -0.0848
      3 C3          0.6473   -0.0634    1.2100 C.3       1 <0>        -0.1441
      4 C4         -1.4659   -0.4120   -0.0765 C.3       1 <0>        -0.1578
      5 C5         -2.2061   -0.0573   -1.3404 C.2       1 <0>         0.4213
      6 O1         -1.6905    0.6736   -2.1608 O.2       1 <0>        -0.5024
      7 C6         -3.5023   -0.5763   -1.5706 C.2       1 <0>        -0.5008
      8 C7         -4.2461   -0.4258   -2.6944 C.2       1 <0>         0.2864
      9 C8         -5.5374   -1.1263   -2.5179 C.2       1 <0>         0.5038
     10 O2         -6.4226   -1.1764   -3.3482 O.2       1 <0>        -0.5354
     11 N1         -5.5860   -1.6995   -1.3018 N.am      1 <0>        -0.5982
     12 C9         -4.3220   -1.4107   -0.6143 C.3       1 <0>         0.2594
     13 H1         -3.7984   -2.3381   -0.3828 H         1 <0>         0.0678
     14 C10        -4.5894   -0.6362    0.6505 C.ar      1 <0>        -0.1042
     15 C11        -4.4258    0.7356    0.6690 C.ar      1 <0>        -0.0704
     16 C12        -4.6703    1.4465    1.8291 C.ar      1 <0>        -0.1345
     17 C13        -5.0796    0.7870    2.9736 C.ar      1 <0>        -0.1104
     18 C14        -5.2451   -0.5842    2.9603 C.ar      1 <0>        -0.1523
     19 C15        -5.0053   -1.2994    1.7957 C.ar      1 <0>         0.1058
     20 O3         -5.1728   -2.6479    1.7784 O.3       1 <0>        -0.4937
     21 C16        -6.7018   -2.4798   -0.7612 C.3       1 <0>         0.1569
     22 C17        -6.5145   -3.9335   -1.1116 C.2       1 <0>        -0.1589
     23 C18        -6.5145   -4.8404   -0.1663 C.2       1 <0>        -0.1846
     24 O4         -3.8683    0.2553   -3.7991 O.3       1 <0>        -0.6031
     25 H2          0.4443    2.4464    0.1658 H         1 <0>         0.0426
     26 H3         -1.0613    2.1980   -0.7508 H         1 <0>         0.0732
     27 H4         -1.0644    2.0498    1.0230 H         1 <0>         0.0434
     28 H5          0.4175    0.2143   -0.9139 H         1 <0>         0.0719
     29 H6          0.0670    0.1090    2.1165 H         1 <0>         0.0494
     30 H7          0.8762   -1.1254    1.1217 H         1 <0>         0.0489
     31 H8          1.5757    0.5056    1.2592 H         1 <0>         0.0487
     32 H9         -1.2392   -1.4781   -0.0753 H         1 <0>         0.0735
     33 H10        -2.0858   -0.1714    0.7872 H         1 <0>         0.0785
     34 H11        -4.1062    1.2529   -0.2236 H         1 <0>         0.1357
     35 H12        -4.5412    2.5187    1.8417 H         1 <0>         0.1203
     36 H13        -5.2697    1.3446    3.8788 H         1 <0>         0.1192
     37 H14        -5.5647   -1.0987    3.8544 H         1 <0>         0.1215
     38 H15        -4.3618   -3.1471    1.9459 H         1 <0>         0.3836
     39 H16        -6.7318   -2.3683    0.3226 H         1 <0>         0.0957
     40 H17        -7.6376   -2.1205   -1.1895 H         1 <0>         0.0776
     41 H18        -6.3803   -4.2276   -2.1421 H         1 <0>         0.1035
     42 H19        -6.6487   -4.5463    0.8642 H         1 <0>         0.1029
     43 H20        -6.3803   -5.8822   -0.4174 H         1 <0>         0.0909
@<TRIPOS>BOND
     1    1    2 1
     2    1   25 1
     3    1   26 1
     4    1   27 1
     5    2    3 1
     6    2    4 1
     7    2   28 1
     8    3   29 1
     9    3   30 1
    10    3   31 1
    11    4    5 1
    12    4   32 1
    13    4   33 1
    14    5    6 2
    15    5    7 1
    16    7   12 1
    17    7    8 2
    18    8    9 1
    19    8   24 1
    20    9   10 2
    21    9   11 am
    22   11   12 1
    23   11   21 1
    24   12   13 1
    25   12   14 1
    26   14   19 ar
    27   14   15 ar
    28   15   16 ar
    29   15   34 1
    30   16   17 ar
    31   16   35 1
    32   17   18 ar
    33   17   36 1
    34   18   19 ar
    35   18   37 1
    36   19   20 1
    37   20   38 1
    38   21   22 1
    39   21   39 1
    40   21   40 1
    41   22   23 2
    42   22   41 1
    43   23   42 1
    44   23   43 1
@<TRIPOS>MOLECULE
ZINC49558850
   34    35     0     0     0
SMALL
USER_CHARGES

@<TRIPOS>ATOM
      1 C1         -0.0187    1.5258    0.0104 C.3       1 <0>        -0.1456
      2 C2          0.0021   -0.0041    0.0020 C.3       1 <0>        -0.1014
      3 C3          0.7421   -0.5109    1.2415 C.3       1 <0>        -0.1420
      4 C4         -1.4333   -0.5336    0.0129 C.3       1 <0>         0.2529
      5 H1         -1.9435   -0.1821    0.9097 H         1 <0>         0.1115
      6 C5         -2.1622   -0.0344   -1.2080 C.2       1 <0>        -0.1492
      7 C6         -3.0273    1.0029   -1.3210 C.2       1 <0>        -0.1415
      8 C7         -3.5817    1.2819   -2.5561 C.2       1 <0>        -0.1541
      9 C8         -3.2439    0.5099   -3.6178 C.2       1 <0>        -0.1697
     10 S1         -2.1042   -0.6510   -2.8824 S.3       1 <0>         0.0387
     11 N1         -1.4134   -1.9985    0.0048 N.pl3     1 <0>        -0.6750
     12 C9         -1.2877   -2.6984    1.1991 C.2       1 <0>         0.3370
     13 N2         -1.1806   -2.2380    2.4300 N.2       1 <0>        -0.3623
     14 N3         -1.0652   -3.1168    3.4822 N.2       1 <0>        -0.2961
     15 C10        -1.0623   -4.4162    3.2546 C.2       1 <0>         0.0558
     16 S2         -1.2358   -4.4621    1.4773 S.3       1 <0>        -0.0378
     17 S3         -0.9290   -5.7499    4.3983 S.3       1 <0>         0.0977
     18 C11        -0.7926   -4.9323    6.0119 C.3       1 <0>        -0.1746
     19 C12        -0.6707   -5.9739    7.0941 C.2       1 <0>         0.5159
     20 O1         -0.6754   -7.1581    6.8038 O.co2     1 <0>        -0.6741
     21 O2         -0.5673   -5.6325    8.2600 O.co2     1 <0>        -0.6736
     22 H2          1.0039    1.9031    0.0027 H         1 <0>         0.0599
     23 H3         -0.5459    1.8868   -0.8726 H         1 <0>         0.0569
     24 H4         -0.5289    1.8773    0.9072 H         1 <0>         0.0593
     25 H5          0.5123   -0.3556   -0.8948 H         1 <0>         0.0732
     26 H6          0.2319   -0.1594    2.1383 H         1 <0>         0.0705
     27 H7          0.7568   -1.6008    1.2356 H         1 <0>         0.0530
     28 H8          1.7647   -0.1336    1.2338 H         1 <0>         0.0521
     29 H9         -3.2799    1.6023   -0.4588 H         1 <0>         0.1366
     30 H10        -4.2740    2.1025   -2.6733 H         1 <0>         0.1361
     31 H11        -3.5752    0.5811   -4.6433 H         1 <0>         0.1866
     32 H12        -1.4881   -2.4799   -0.8339 H         1 <0>         0.4155
     33 H13         0.0902   -4.2930    6.0218 H         1 <0>         0.0939
     34 H14        -1.6815   -4.3269    6.1888 H         1 <0>         0.0937
@<TRIPOS>BOND
     1    1    2 1
     2    1   22 1
     3    1   23 1
     4    1   24 1
     5    2    3 1
     6    2    4 1
     7    2   25 1
     8    3   26 1
     9    3   27 1
    10    3   28 1
    11    4    5 1
    12    4    6 1
    13    4   11 1
    14    6   10 1
    15    6    7 2
    16    7    8 1
    17    7   29 1
    18    8    9 2
    19    8   30 1
    20    9   10 1
    21    9   31 1
    22   11   12 1
    23   11   32 1
    24   12   16 1
    25   12   13 2
    26   13   14 1
    27   14   15 2
    28   15   16 1
    29   15   17 1
    30   17   18 1
    31   18   19 1
    32   18   33 1
    33   18   34 1
    34   19   20 2
    35   19   21 1
@<TRIPOS>MOLECULE
ZINC57638819
   46    46     0     0     0
SMALL
USER_CHARGES

@<TRIPOS>ATOM
      1 C1         -0.0187    1.5258    0.0104 C.3       1 <0>        -0.1434
      2 C2          0.0021   -0.0041    0.0020 C.3       1 <0>        -0.0525
      3 C3          0.7421   -0.5109    1.2415 C.3       1 <0>        -0.1444
      4 C4         -1.4117   -0.5257    0.0127 C.ar      1 <0>        -0.1128
      5 C5         -2.2585   -0.2034    1.0575 C.ar      1 <0>        -0.0822
      6 C6         -3.5546   -0.6806    1.0698 C.ar      1 <0>        -0.2054
      7 C7         -4.0069   -1.4836    0.0326 C.ar      1 <0>         0.1265
      8 C8         -3.1558   -1.8050   -1.0144 C.ar      1 <0>        -0.1034
      9 C9         -1.8617   -1.3209   -1.0247 C.ar      1 <0>        -0.0774
     10 C10        -3.6438   -2.6769   -2.1426 C.3       1 <0>        -0.0699
     11 C11        -3.6014   -4.1435   -1.7087 C.3       1 <0>        -0.1100
     12 C12        -4.0968   -5.0287   -2.8541 C.3       1 <0>         0.1676
     13 C13        -5.5339   -4.6438   -3.2112 C.3       1 <0>        -0.1603
     14 C14        -3.1976   -4.8322   -4.0762 C.3       1 <0>        -0.1627
     15 N1         -4.0563   -6.4330   -2.4387 N.am      1 <0>        -0.7156
     16 C15        -4.4499   -7.3996   -3.2913 C.2       1 <0>         0.4562
     17 O1         -4.8378   -7.1069   -4.4029 O.2       1 <0>        -0.5466
     18 C16        -4.4084   -8.8345   -2.8669 C.2       1 <0>         0.4936
     19 O2         -4.7648   -9.7096   -3.6389 O.co2     1 <0>        -0.6489
     20 O3         -4.0182   -9.1289   -1.7489 O.co2     1 <0>        -0.6746
     21 O4         -5.2816   -1.9547    0.0427 O.3       1 <0>        -0.3085
     22 C17        -6.1016   -1.5837    1.1527 C.3       1 <0>         0.0275
     23 H1          1.0039    1.9031    0.0027 H         1 <0>         0.0556
     24 H2         -0.5459    1.8868   -0.8726 H         1 <0>         0.0552
     25 H3         -0.5289    1.8773    0.9072 H         1 <0>         0.0544
     26 H4          0.5123   -0.3556   -0.8948 H         1 <0>         0.0765
     27 H5          0.2319   -0.1594    2.1383 H         1 <0>         0.0544
     28 H6          0.7568   -1.6008    1.2356 H         1 <0>         0.0571
     29 H7          1.7647   -0.1336    1.2338 H         1 <0>         0.0557
     30 H8         -1.9059    0.4216    1.8646 H         1 <0>         0.1197
     31 H9         -4.2153   -0.4293    1.8864 H         1 <0>         0.1250
     32 H10        -1.1999   -1.5675   -1.8417 H         1 <0>         0.1273
     33 H11        -4.6676   -2.4027   -2.3970 H         1 <0>         0.0804
     34 H12        -3.0031   -2.5369   -3.0133 H         1 <0>         0.0745
     35 H13        -2.5776   -4.4177   -1.4543 H         1 <0>         0.0651
     36 H14        -4.2420   -4.2835   -0.8381 H         1 <0>         0.0703
     37 H15        -5.5641   -3.5990   -3.5203 H         1 <0>         0.0564
     38 H16        -5.8869   -5.2745   -4.0271 H         1 <0>         0.0760
     39 H17        -6.1746   -4.7838   -2.3405 H         1 <0>         0.0508
     40 H18        -2.1737   -5.1064   -3.8218 H         1 <0>         0.0501
     41 H19        -3.5505   -5.4628   -4.8922 H         1 <0>         0.0774
     42 H20        -3.2278   -3.7874   -4.3853 H         1 <0>         0.0566
     43 H21        -3.7461   -6.6671   -1.5499 H         1 <0>         0.4029
     44 H22        -7.0914   -2.0252    1.0367 H         1 <0>         0.0995
     45 H23        -5.6485   -1.9450    2.0759 H         1 <0>         0.0539
     46 H24        -6.1903   -0.4981    1.1920 H         1 <0>         0.0520
@<TRIPOS>BOND
     1    1    2 1
     2    1   23 1
     3    1   24 1
     4    1   25 1
     5    2    3 1
     6    2    4 1
     7    2   26 1
     8    3   27 1
     9    3   28 1
    10    3   29 1
    11    4    9 ar
    12    4    5 ar
    13    5    6 ar
    14    5   30 1
    15    6    7 ar
    16    6   31 1
    17    7    8 ar
    18    7   21 1
    19    8    9 ar
    20    8   10 1
    21    9   32 1
    22   10   11 1
    23   10   33 1
    24   10   34 1
    25   11   12 1
    26   11   35 1
    27   11   36 1
    28   12   13 1
    29   12   14 1
    30   12   15 1
    31   13   37 1
    32   13   38 1
    33   13   39 1
    34   14   40 1
    35   14   41 1
    36   14   42 1
    37   15   16 am
    38   15   43 1
    39   16   17 2
    40   16   18 1
    41   18   19 2
    42   18   20 1
    43   21   22 1
    44   22   44 1
    45   22   45 1
    46   22   46 1
@<TRIPOS>MOLECULE
ZINC17322762
   42    43     0     0     0
SMALL
USER_CHARGES

@<TRIPOS>ATOM
      1 C1         -0.0187    1.5258    0.0104 C.3       1 <0>        -0.1539
      2 C2          0.0021   -0.0041    0.0020 C.3       1 <0>        -0.1246
      3 C3         -1.4333   -0.5336    0.0129 C.3       1 <0>        -0.1175
      4 C4         -1.4126   -2.0635    0.0045 C.3       1 <0>        -0.1327
      5 C5         -2.8479   -2.5931    0.0153 C.3       1 <0>         0.1187
      6 N1         -2.8281   -4.0579    0.0073 N.am      1 <0>        -0.7293
      7 C6         -3.9860   -4.7476    0.0146 C.2       1 <0>         0.5611
      8 O1         -5.0464   -4.1544    0.0279 O.2       1 <0>        -0.5327
      9 C7         -3.9659   -6.2288    0.0065 C.ar      1 <0>        -0.0831
     10 C8         -2.7373   -6.9074   -0.0031 C.ar      1 <0>        -0.1687
     11 C9         -2.6927   -8.2682   -0.0107 C.ar      1 <0>        -0.0126
     12 C10        -3.8847   -9.0064   -0.0090 C.ar      1 <0>        -0.2234
     13 C11        -5.1345   -8.3333    0.0007 C.ar      1 <0>         0.2130
     14 C12        -5.1597   -6.9312    0.0141 C.ar      1 <0>        -0.0725
     15 N2         -6.2649   -9.0539    0.0027 N.2       1 <0>        -0.5529
     16 C13        -6.2238  -10.3775   -0.0043 C.2       1 <0>         0.5036
     17 N3         -5.0677  -11.0616   -0.0131 N.pl3     1 <0>        -0.4915
     18 C14        -3.8806  -10.4176   -0.0162 C.2       1 <0>         0.5019
     19 O2         -2.7243  -11.1035   -0.0251 O.3       1 <0>        -0.6109
     20 C15        -5.0950  -12.5263   -0.0200 C.3       1 <0>         0.0887
     21 C16        -5.1115  -13.0293   -1.4648 C.3       1 <0>        -0.1550
     22 S1         -7.6977  -11.2485   -0.0013 S.2       1 <0>        -0.7081
     23 H1          1.0039    1.9031    0.0027 H         1 <0>         0.0528
     24 H2         -0.5459    1.8868   -0.8726 H         1 <0>         0.0538
     25 H3         -0.5289    1.8773    0.9072 H         1 <0>         0.0538
     26 H4          0.5123   -0.3556   -0.8948 H         1 <0>         0.0615
     27 H5          0.5293   -0.3651    0.8851 H         1 <0>         0.0615
     28 H6         -1.9435   -0.1821    0.9097 H         1 <0>         0.0655
     29 H7         -1.9605   -0.1726   -0.8702 H         1 <0>         0.0655
     30 H8         -0.9024   -2.4150   -0.8923 H         1 <0>         0.0697
     31 H9         -0.8854   -2.4246    0.8875 H         1 <0>         0.0697
     32 H10        -3.3581   -2.2415    0.9121 H         1 <0>         0.0677
     33 H11        -3.3751   -2.2320   -0.8677 H         1 <0>         0.0677
     34 H12        -1.9816   -4.5314   -0.0034 H         1 <0>         0.4015
     35 H13        -1.8163   -6.3434   -0.0048 H         1 <0>         0.1215
     36 H14        -1.7406   -8.7781   -0.0185 H         1 <0>         0.1348
     37 H15        -6.1019   -6.4036    0.0263 H         1 <0>         0.1460
     38 H16        -4.2095  -12.9086    0.4878 H         1 <0>         0.0861
     39 H17        -5.9892  -12.8754    0.4965 H         1 <0>         0.1163
     40 H18        -5.1318  -14.1191   -1.4700 H         1 <0>         0.0684
     41 H19        -5.9970  -12.6470   -1.9726 H         1 <0>         0.0678
     42 H20        -4.2174  -12.6802   -1.9813 H         1 <0>         0.0506
@<TRIPOS>BOND
     1    1    2 1
     2    1   23 1
     3    1   24 1
     4    1   25 1
     5    2    3 1
     6    2   26 1
     7    2   27 1
     8    3    4 1
     9    3   28 1
    10    3   29 1
    11    4    5 1
    12    4   30 1
    13    4   31 1
    14    5    6 1
    15    5   32 1
    16    5   33 1
    17    6    7 am
    18    6   34 1
    19    7    8 2
    20    7    9 1
    21    9   14 ar
    22    9   10 ar
    23   10   11 ar
    24   10   35 1
    25   11   12 ar
    26   11   36 1
    27   12   18 2
    28   12   13 ar
    29   13   14 ar
    30   13   15 2
    31   14   37 1
    32   15   16 1
    33   16   17 1
    34   16   22 2
    35   17   18 1
    36   17   20 1
    37   18   19 1
    38   20   21 1
    39   20   38 1
    40   20   39 1
    41   21   40 1
    42   21   41 1
    43   21   42 1
@<TRIPOS>MOLECULE
ZINC13250254
   53    55     0     0     0
SMALL
USER_CHARGES
(E)-3-[4-[(2-hydroxyphenyl)methyl-[(1R)-1-phenylethyl]sulfamoyl]phenyl]prop-2-enoic acid
@<TRIPOS>ATOM
      1 C1          3.0476    1.1395   -2.3624 C.3       1 <0>        -0.2046
      2 C2          3.4437    2.5904   -2.6432 C.3       1 <0>         0.2042
      3 H1          2.9072    2.9501   -3.5212 H         1 <0>         0.1115
      4 C3          4.9276    2.6662   -2.8953 C.ar      1 <0>        -0.0643
      5 C4          5.7660    3.1959   -1.9324 C.ar      1 <0>        -0.0848
      6 C5          7.1276    3.2615   -2.1618 C.ar      1 <0>        -0.1160
      7 C6          7.6497    2.8061   -3.3581 C.ar      1 <0>        -0.1258
      8 C7          6.8106    2.2808   -4.3229 C.ar      1 <0>        -0.1207
      9 C8          5.4495    2.2113   -4.0917 C.ar      1 <0>        -0.1025
     10 N1          3.1017    3.4225   -1.4870 N.pl3     1 <0>        -0.9857
     11 C9          2.3757    4.6805   -1.6790 C.3       1 <0>         0.1721
     12 C10         3.3571    5.7888   -1.9611 C.ar      1 <0>        -0.1395
     13 C11         3.6221    6.7401   -0.9948 C.ar      1 <0>        -0.0748
     14 C12         4.5259    7.7544   -1.2512 C.ar      1 <0>        -0.1333
     15 C13         5.1589    7.8256   -2.4786 C.ar      1 <0>        -0.1004
     16 C14         4.8935    6.8800   -3.4498 C.ar      1 <0>        -0.1517
     17 C15         3.9908    5.8580   -3.1930 C.ar      1 <0>         0.1331
     18 O1          3.7276    4.9267   -4.1471 O.3       1 <0>        -0.4867
     19 S1          3.5356    2.9412    0.0369 S.o2      1 <0>         2.6877
     20 O2          3.8856    4.1191    0.7506 O.2       1 <0>        -0.9576
     21 O3          4.4336    1.8514   -0.1217 O.2       1 <0>        -0.9507
     22 C16         2.0905    2.2945    0.8102 C.ar      1 <0>        -0.6990
     23 C17         1.7903    0.9486    0.6922 C.ar      1 <0>        -0.0180
     24 C18         0.6610    0.4350    1.2941 C.ar      1 <0>        -0.1387
     25 C19        -0.1848    1.2790    2.0208 C.ar      1 <0>         0.0302
     26 C20         0.1283    2.6368    2.1398 C.ar      1 <0>        -0.1442
     27 C21         1.2612    3.1352    1.5321 C.ar      1 <0>        -0.0195
     28 C22        -1.3953    0.7401    2.6612 C.2       1 <0>        -0.1426
     29 C23        -2.2089    1.5574    3.3615 C.2       1 <0>        -0.1163
     30 C24        -3.4117    1.0219    3.9978 C.2       1 <0>         0.4702
     31 O4         -3.6788   -0.1602    3.8957 O.co2     1 <0>        -0.6284
     32 H2          3.7477    0.7031   -1.6500 H         1 <0>         0.0961
     33 H3          2.0408    1.1119   -1.9458 H         1 <0>         0.0682
     34 H4          3.0722    0.5698   -3.2914 H         1 <0>         0.0782
     35 H5          5.3577    3.5555   -0.9994 H         1 <0>         0.0840
     36 H6          7.7832    3.6716   -1.4079 H         1 <0>         0.1165
     37 H7          8.7131    2.8604   -3.5387 H         1 <0>         0.1168
     38 H8          7.2185    1.9250   -5.2576 H         1 <0>         0.1178
     39 H9          4.7940    1.8012   -4.8457 H         1 <0>         0.1192
     40 H10         1.6900    4.5795   -2.5203 H         1 <0>         0.0924
     41 H11         1.8115    4.9157   -0.7766 H         1 <0>         0.0862
     42 H12         3.1259    6.6890   -0.0369 H         1 <0>         0.1316
     43 H13         4.7347    8.4947   -0.4932 H         1 <0>         0.1242
     44 H14         5.8612    8.6214   -2.6781 H         1 <0>         0.1226
     45 H15         5.3879    6.9362   -4.4083 H         1 <0>         0.1243
     46 H16         2.9945    5.1600   -4.7329 H         1 <0>         0.3825
     47 H17         2.4425    0.2988    0.1275 H         1 <0>         0.1376
     48 H18         0.4279   -0.6154    1.2008 H         1 <0>         0.1354
     49 H19        -0.5180    3.2942    2.7025 H         1 <0>         0.1379
     50 H20         1.5020    4.1844    1.6194 H         1 <0>         0.1353
     51 H21        -1.6325   -0.3097    2.5705 H         1 <0>         0.1342
     52 H22        -1.9717    2.6071    3.4521 H         1 <0>         0.1107
     53 O5         -4.2252    1.8392    4.6980 O.co2     1 <0>        -0.7551
@<TRIPOS>BOND
     1    1    2 1
     2    1   32 1
     3    1   33 1
     4    1   34 1
     5    2    3 1
     6    2    4 1
     7    2   10 1
     8    4    9 ar
     9    4    5 ar
    10    5    6 ar
    11    5   35 1
    12    6    7 ar
    13    6   36 1
    14    7    8 ar
    15    7   37 1
    16    8    9 ar
    17    8   38 1
    18    9   39 1
    19   10   11 1
    20   10   19 1
    21   11   12 1
    22   11   40 1
    23   11   41 1
    24   12   17 ar
    25   12   13 ar
    26   13   14 ar
    27   13   42 1
    28   14   15 ar
    29   14   43 1
    30   15   16 ar
    31   15   44 1
    32   16   17 ar
    33   16   45 1
    34   17   18 1
    35   18   46 1
    36   19   20 2
    37   19   21 2
    38   19   22 1
    39   22   27 ar
    40   22   23 ar
    41   23   24 ar
    42   23   47 1
    43   24   25 ar
    44   24   48 1
    45   25   26 ar
    46   25   28 1
    47   26   27 ar
    48   26   49 1
    49   27   50 1
    50   28   29 2
    51   28   51 1
    52   29   30 1
    53   29   52 1
    54   30   31 2
    55   30   53 1
@<TRIPOS>MOLECULE
ZINC01413461
   50    54     0     0     0
SMALL
USER_CHARGES

@<TRIPOS>ATOM
      1 C1          0.0123    1.3220    0.1260 C.ar      1 <0>        -0.1501
      2 C2          1.1949    2.0489    0.0993 C.ar      1 <0>        -0.0991
      3 C3          2.4123    1.4079    0.0335 C.ar      1 <0>        -0.1368
      4 C4          2.4601    0.0180   -0.0064 C.ar      1 <0>         0.0945
      5 C5          1.2591   -0.7139    0.0214 C.ar      1 <0>        -0.1006
      6 C6          0.0361   -0.0435    0.0877 C.ar      1 <0>        -0.0629
      7 C7          1.6444   -2.1262   -0.0325 C.2       1 <0>        -0.1569
      8 C8          2.9851   -2.1653   -0.0868 C.2       1 <0>         0.0491
      9 N1          3.4899   -0.8936   -0.0721 N.pl3     1 <0>        -0.5974
     10 H1          4.4327   -0.6679   -0.1031 H         1 <0>         0.4135
     11 C9          0.7125   -3.3104   -0.0274 C.3       1 <0>        -0.0627
     12 C10         0.2409   -3.5945   -1.4549 C.3       1 <0>         0.1453
     13 N2         -0.6650   -4.7458   -1.4499 N.am      1 <0>        -0.6130
     14 C11        -0.2749   -6.1524   -1.6015 C.3       1 <0>         0.3026
     15 H2          0.3963   -6.4443   -0.7938 H         1 <0>         0.0935
     16 C12        -1.5534   -6.9544   -1.5299 C.2       1 <0>        -0.5151
     17 C13        -1.6783   -8.4117   -1.6307 C.2       1 <0>         0.5056
     18 C14        -1.0998   -9.2770   -0.5823 C.ar      1 <0>        -0.1454
     19 C15        -0.5430   -8.7097    0.5669 C.ar      1 <0>        -0.0369
     20 C16        -0.0052   -9.5216    1.5418 C.ar      1 <0>        -0.1689
     21 C17        -0.0159  -10.8995    1.3839 C.ar      1 <0>         0.1069
     22 C18        -0.5668  -11.4681    0.2451 C.ar      1 <0>        -0.1689
     23 C19        -1.1125  -10.6661   -0.7336 C.ar      1 <0>        -0.0467
     24 F1          0.5127  -11.6909    2.3429 F         1 <0>        -0.1437
     25 O1         -2.2584   -8.9085   -2.5780 O.2       1 <0>        -0.4697
     26 C20        -2.5610   -6.0681   -1.3541 C.2       1 <0>         0.2727
     27 O2         -3.8717   -6.3836   -1.2409 O.3       1 <0>        -0.6467
     28 C21        -2.0013   -4.7011   -1.2998 C.2       1 <0>         0.5148
     29 O3         -2.6520   -3.6868   -1.1447 O.2       1 <0>        -0.5282
     30 C22         0.3951   -6.3635   -2.9348 C.2       1 <0>         0.0163
     31 C23         1.5205   -7.0692   -3.1466 C.2       1 <0>        -0.2262
     32 C24         1.7887   -7.0059   -4.5334 C.2       1 <0>        -0.2148
     33 C25         0.8112   -6.2653   -5.0859 C.2       1 <0>        -0.0543
     34 O4         -0.0333   -5.8837   -4.1138 O.3       1 <0>        -0.1585
     35 H3         -0.9337    1.8400    0.1819 H         1 <0>         0.1212
     36 H4          1.1599    3.1279    0.1301 H         1 <0>         0.1218
     37 H5          3.3266    1.9823    0.0125 H         1 <0>         0.1160
     38 H6         -0.8878   -0.6024    0.1091 H         1 <0>         0.1262
     39 H7          3.5776   -3.0670   -0.1353 H         1 <0>         0.1697
     40 H8          1.2362   -4.1832    0.3627 H         1 <0>         0.0731
     41 H9         -0.1493   -3.0919    0.6032 H         1 <0>         0.0767
     42 H10        -0.2828   -2.7218   -1.8450 H         1 <0>         0.0790
     43 H11         1.1027   -3.8130   -2.0855 H         1 <0>         0.0727
     44 H12        -0.5339   -7.6368    0.6907 H         1 <0>         0.1446
     45 H13         0.4256   -9.0842    2.4303 H         1 <0>         0.1359
     46 H14        -0.5721  -12.5416    0.1272 H         1 <0>         0.1343
     47 H15        -1.5456  -11.1101   -1.6178 H         1 <0>         0.1394
     48 H16         2.1070   -7.5848   -2.4006 H         1 <0>         0.1427
     49 H17         2.6192   -7.4640   -5.0498 H         1 <0>         0.1411
     50 H18         0.7188   -6.0222   -6.1341 H         1 <0>         0.1942
@<TRIPOS>BOND
     1    1    6 ar
     2    1    2 ar
     3    1   35 1
     4    2    3 ar
     5    2   36 1
     6    3    4 ar
     7    3   37 1
     8    4    9 1
     9    4    5 ar
    10    5    6 ar
    11    5    7 1
    12    6   38 1
    13    7    8 2
    14    7   11 1
    15    8    9 1
    16    8   39 1
    17    9   10 1
    18   11   12 1
    19   11   40 1
    20   11   41 1
    21   12   42 1
    22   12   43 1
    23   12   13 1
    24   13   28 am
    25   13   14 1
    26   14   16 1
    27   14   30 1
    28   14   15 1
    29   16   26 2
    30   16   17 1
    31   17   25 2
    32   17   18 1
    33   18   23 ar
    34   18   19 ar
    35   19   20 ar
    36   19   44 1
    37   20   21 ar
    38   20   45 1
    39   21   22 ar
    40   21   24 1
    41   22   23 ar
    42   22   46 1
    43   23   47 1
    44   26   28 1
    45   26   27 1
    46   28   29 2
    47   30   34 1
    48   30   31 2
    49   31   32 1
    50   31   48 1
    51   32   33 2
    52   32   49 1
    53   33   34 1
    54   33   50 1
@<TRIPOS>MOLECULE
ZINC40048637
   62    64     0     0     0
SMALL
USER_CHARGES

@<TRIPOS>ATOM
      1 C1          2.0497    1.5655   -1.3883 C.3       1 <0>        -0.0998
      2 C2          2.0990    0.0593   -1.3894 C.ar      1 <0>        -0.1348
      3 C3          1.0623   -0.6620   -1.9376 C.ar      1 <0>        -0.0368
      4 C4          1.1091   -2.0593   -1.9382 C.ar      1 <0>        -0.1682
      5 C5          2.2097   -2.7184   -1.3814 C.ar      1 <0>        -0.0311
      6 C6          3.2418   -1.9897   -0.8355 C.ar      1 <0>        -0.2205
      7 C7          3.1940   -0.5998   -0.8421 C.ar      1 <0>         0.1374
      8 O1          4.2162    0.1150   -0.3078 O.3       1 <0>        -0.3154
      9 C8          5.3100   -0.6254    0.2376 C.3       1 <0>         0.0268
     10 C9         -0.0003   -2.8367   -2.5244 C.2       1 <0>         0.5088
     11 O2         -0.9889   -2.2645   -2.9446 O.2       1 <0>        -0.4762
     12 C10         0.0886   -4.2984   -2.6004 C.2       1 <0>        -0.4999
     13 C11         0.1802   -5.0439   -3.7260 C.2       1 <0>         0.2617
     14 C12         0.2483   -6.4736   -3.3574 C.2       1 <0>         0.5123
     15 O3          0.3358   -7.3936   -4.1461 O.2       1 <0>        -0.5353
     16 N1          0.1990   -6.6056   -2.0194 N.am      1 <0>        -0.6117
     17 C13         0.1021   -5.2620   -1.4368 C.3       1 <0>         0.2630
     18 H1          0.9626   -5.0653   -0.7972 H         1 <0>         0.0687
     19 C14        -1.1733   -5.1353   -0.6441 C.ar      1 <0>        -0.0707
     20 C15        -2.3134   -5.7981   -1.0585 C.ar      1 <0>        -0.0936
     21 C16        -3.4833   -5.6818   -0.3314 C.ar      1 <0>        -0.1152
     22 C17        -3.5130   -4.9030    0.8103 C.ar      1 <0>        -0.0828
     23 C18        -2.3727   -4.2409    1.2251 C.ar      1 <0>        -0.1207
     24 C19        -1.2017   -4.3606    0.5004 C.ar      1 <0>        -0.1130
     25 C20        -4.7887   -4.7755    1.6024 C.3       1 <0>        -0.0269
     26 C21        -5.2287   -6.1584    2.0868 C.3       1 <0>        -0.1360
     27 C22        -4.5513   -3.8644    2.8084 C.3       1 <0>        -0.1419
     28 C23        -5.8813   -4.1740    0.7161 C.3       1 <0>        -0.1384
     29 C24         0.2405   -7.8670   -1.2754 C.3       1 <0>         0.1409
     30 C25         1.6937   -8.2223   -0.9547 C.3       1 <0>        -0.1389
     31 C26         1.7371   -9.5397   -0.1777 C.3       1 <0>         0.0806
     32 O4          3.0943   -9.8716    0.1218 O.3       1 <0>        -0.5740
     33 O5          0.2055   -4.5578   -4.9884 O.3       1 <0>        -0.6558
     34 H2          2.5050    1.9447   -2.3032 H         1 <0>         0.0647
     35 H3          1.0121    1.8950   -1.3352 H         1 <0>         0.0637
     36 H4          2.5964    1.9463   -0.5256 H         1 <0>         0.0661
     37 H5          0.2140   -0.1491   -2.3663 H         1 <0>         0.1357
     38 H6          2.2495   -3.7976   -1.3796 H         1 <0>         0.1356
     39 H7          4.0922   -2.4979   -0.4053 H         1 <0>         0.1279
     40 H8          6.0562    0.0651    0.6306 H         1 <0>         0.0964
     41 H9          4.9495   -1.2670    1.0417 H         1 <0>         0.0548
     42 H10         5.7586   -1.2392   -0.5435 H         1 <0>         0.0557
     43 H11        -2.2902   -6.4066   -1.9505 H         1 <0>         0.1154
     44 H12        -4.3742   -6.1992   -0.6556 H         1 <0>         0.1139
     45 H13        -2.3960   -3.6322    2.1169 H         1 <0>         0.1200
     46 H14        -0.3098   -3.8463    0.8266 H         1 <0>         0.1166
     47 H15        -4.4503   -6.5869    2.7181 H         1 <0>         0.0544
     48 H16        -6.1514   -6.0662    2.6597 H         1 <0>         0.0536
     49 H17        -5.3979   -6.8075    1.2276 H         1 <0>         0.0560
     50 H18        -4.2378   -2.8791    2.4633 H         1 <0>         0.0586
     51 H19        -5.4740   -3.7721    3.3813 H         1 <0>         0.0535
     52 H20        -3.7729   -4.2928    3.4397 H         1 <0>         0.0570
     53 H21        -6.0505   -4.8231   -0.1431 H         1 <0>         0.0566
     54 H22        -6.8040   -4.0818    1.2890 H         1 <0>         0.0535
     55 H23        -5.5679   -3.1888    0.3710 H         1 <0>         0.0573
     56 H24        -0.3207   -7.7599   -0.3472 H         1 <0>         0.0767
     57 H25        -0.2026   -8.6593   -1.8786 H         1 <0>         0.0785
     58 H26         2.2550   -8.3294   -1.8829 H         1 <0>         0.0746
     59 H27         2.1369   -7.4300   -0.3515 H         1 <0>         0.0719
     60 H28         1.1758   -9.4326    0.7505 H         1 <0>         0.0457
     61 H29         1.2939  -10.3320   -0.7809 H         1 <0>         0.0467
     62 H30         3.1978  -10.6971    0.6146 H         1 <0>         0.3764
@<TRIPOS>BOND
     1    1    2 1
     2    1   34 1
     3    1   35 1
     4    1   36 1
     5    2    7 ar
     6    2    3 ar
     7    3    4 ar
     8    3   37 1
     9    4    5 ar
    10    4   10 1
    11    5    6 ar
    12    5   38 1
    13    6    7 ar
    14    6   39 1
    15    7    8 1
    16    8    9 1
    17    9   40 1
    18    9   41 1
    19    9   42 1
    20   10   11 2
    21   10   12 1
    22   12   17 1
    23   12   13 2
    24   13   14 1
    25   13   33 1
    26   14   15 2
    27   14   16 am
    28   16   17 1
    29   16   29 1
    30   17   18 1
    31   17   19 1
    32   19   24 ar
    33   19   20 ar
    34   20   21 ar
    35   20   43 1
    36   21   22 ar
    37   21   44 1
    38   22   23 ar
    39   22   25 1
    40   23   24 ar
    41   23   45 1
    42   24   46 1
    43   25   26 1
    44   25   27 1
    45   25   28 1
    46   26   47 1
    47   26   48 1
    48   26   49 1
    49   27   50 1
    50   27   51 1
    51   27   52 1
    52   28   53 1
    53   28   54 1
    54   28   55 1
    55   29   30 1
    56   29   56 1
    57   29   57 1
    58   30   31 1
    59   30   58 1
    60   30   59 1
    61   31   32 1
    62   31   60 1
    63   31   61 1
    64   32   62 1
@<TRIPOS>MOLECULE
ZINC39899278
   57    60     0     0     0
SMALL
USER_CHARGES

@<TRIPOS>ATOM
      1 C1          1.1068    1.8242    0.6191 C.3       1 <0>        -0.1189
      2 C2          0.8759    0.3380    0.5241 C.ar      1 <0>        -0.0734
      3 C3          1.1539   -0.4753    1.6067 C.ar      1 <0>        -0.1181
      4 C4          0.9421   -1.8385    1.5196 C.ar      1 <0>        -0.0869
      5 C5          0.4518   -2.3884    0.3499 C.ar      1 <0>        -0.1061
      6 C6          0.1730   -1.5750   -0.7325 C.ar      1 <0>        -0.0988
      7 C7          0.3808   -0.2112   -0.6439 C.ar      1 <0>        -0.1131
      8 C8          0.2218   -3.8747    0.2545 C.3       1 <0>         0.2477
      9 H1         -0.3296   -4.1110   -0.6556 H         1 <0>         0.1106
     10 C9          1.5373   -4.6040    0.2668 C.2       1 <0>        -0.1686
     11 C10         2.7729   -4.8183   -0.3534 C.2       1 <0>         0.1137
     12 N1          3.4252   -5.7112    0.3649 N.2       1 <0>        -0.2235
     13 N2          2.7242   -6.0817    1.3767 N.pl3     1 <0>        -0.3314
     14 H2          3.0045   -6.7306    2.0409 H         1 <0>         0.4544
     15 C11         1.5259   -5.4259    1.3774 C.2       1 <0>        -0.0605
     16 C12         0.2483   -5.2479    2.0764 C.2       1 <0>         0.5990
     17 O1         -0.0734   -5.8309    3.0942 O.2       1 <0>        -0.5141
     18 N3         -0.5184   -4.3482    1.4313 N.am      1 <0>        -0.5927
     19 C13        -1.8588   -3.9150    1.8336 C.3       1 <0>         0.1436
     20 C14        -2.9047   -4.8227    1.1834 C.3       1 <0>        -0.1383
     21 C15        -4.3046   -4.3703    1.6035 C.3       1 <0>         0.0663
     22 O2         -5.2815   -5.2181    0.9962 O.3       1 <0>        -0.3820
     23 C16        -6.6302   -4.8796    1.3256 C.3       1 <0>         0.0816
     24 C17        -7.5500   -5.2608    0.1638 C.3       1 <0>        -0.1509
     25 C18        -7.0546   -5.6410    2.5830 C.3       1 <0>        -0.1768
     26 C19         3.2596   -4.1620   -1.5923 C.ar      1 <0>        -0.0273
     27 C20         2.4148   -3.3273   -2.3196 C.ar      1 <0>        -0.0754
     28 C21         2.8724   -2.7188   -3.4721 C.ar      1 <0>        -0.0428
     29 C22         4.1690   -2.9361   -3.9069 C.ar      1 <0>        -0.0854
     30 C23         5.0144   -3.7632   -3.1920 C.ar      1 <0>        -0.1333
     31 C24         4.5694   -4.3746   -2.0309 C.ar      1 <0>         0.1391
     32 O3          5.4020   -5.1831   -1.3242 O.3       1 <0>        -0.4789
     33 Cl1         1.8186   -1.6789   -4.3785 Cl        1 <0>        -0.0606
     34 H3          0.2035    2.3093    0.9889 H         1 <0>         0.0725
     35 H4          1.9313    2.0206    1.3045 H         1 <0>         0.0673
     36 H5          1.3526    2.2175   -0.3673 H         1 <0>         0.0687
     37 H6          1.5369   -0.0457    2.5206 H         1 <0>         0.1228
     38 H7          1.1599   -2.4740    2.3652 H         1 <0>         0.1150
     39 H8         -0.2097   -2.0047   -1.6465 H         1 <0>         0.1253
     40 H9          0.1594    0.4247   -1.4882 H         1 <0>         0.1259
     41 H10        -1.9497   -3.9748    2.9182 H         1 <0>         0.0926
     42 H11        -2.0200   -2.8862    1.5117 H         1 <0>         0.0920
     43 H12        -2.8138   -4.7630    0.0988 H         1 <0>         0.0769
     44 H13        -2.7435   -5.8516    1.5053 H         1 <0>         0.0783
     45 H14        -4.3955   -4.4301    2.6881 H         1 <0>         0.0515
     46 H15        -4.4658   -3.3415    1.2816 H         1 <0>         0.0517
     47 H16        -6.7014   -3.8075    1.5087 H         1 <0>         0.0600
     48 H17        -7.4788   -6.3329   -0.0193 H         1 <0>         0.0639
     49 H18        -8.5787   -5.0026    0.4150 H         1 <0>         0.0700
     50 H19        -7.2477   -4.7183   -0.7320 H         1 <0>         0.0613
     51 H20        -6.9834   -6.7132    2.3999 H         1 <0>         0.0642
     52 H21        -6.3993   -5.3695    3.4106 H         1 <0>         0.0562
     53 H22        -8.0833   -5.3829    2.8342 H         1 <0>         0.0660
     54 H23         1.4030   -3.1563   -1.9831 H         1 <0>         0.1404
     55 H24         4.5210   -2.4575   -4.8088 H         1 <0>         0.1412
     56 H25         6.0245   -3.9293   -3.5361 H         1 <0>         0.1437
     57 H26         5.3716   -6.1112   -1.5939 H         1 <0>         0.3944
@<TRIPOS>BOND
     1    1    2 1
     2    1   34 1
     3    1   35 1
     4    1   36 1
     5    2    7 ar
     6    2    3 ar
     7    3    4 ar
     8    3   37 1
     9    4    5 ar
    10    4   38 1
    11    5    6 ar
    12    5    8 1
    13    6    7 ar
    14    6   39 1
    15    7   40 1
    16    8    9 1
    17    8   18 1
    18    8   10 1
    19   10   15 2
    20   10   11 1
    21   11   12 2
    22   11   26 1
    23   12   13 1
    24   13   14 1
    25   13   15 1
    26   15   16 1
    27   16   17 2
    28   16   18 am
    29   18   19 1
    30   19   20 1
    31   19   41 1
    32   19   42 1
    33   20   21 1
    34   20   43 1
    35   20   44 1
    36   21   22 1
    37   21   45 1
    38   21   46 1
    39   22   23 1
    40   23   24 1
    41   23   25 1
    42   23   47 1
    43   24   48 1
    44   24   49 1
    45   24   50 1
    46   25   51 1
    47   25   52 1
    48   25   53 1
    49   26   31 ar
    50   26   27 ar
    51   27   28 ar
    52   27   54 1
    53   28   29 ar
    54   28   33 1
    55   29   30 ar
    56   29   55 1
    57   30   31 ar
    58   30   56 1
    59   31   32 1
    60   32   57 1
@<TRIPOS>MOLECULE
ZINC59581629
   54    57     0     0     0
SMALL
USER_CHARGES

@<TRIPOS>ATOM
      1 C1         -1.0873    1.2528   -0.1433 C.3       1 <0>        -0.1118
      2 C2         -0.4626   -0.1165   -0.0672 C.ar      1 <0>        -0.0848
      3 C3          0.1298   -0.6684   -1.1895 C.ar      1 <0>        -0.1274
      4 C4          0.7055   -1.9248   -1.1282 C.ar      1 <0>        -0.1107
      5 C5          0.6926   -2.6359    0.0542 C.ar      1 <0>        -0.1373
      6 C6          0.0972   -2.0850    1.1898 C.ar      1 <0>         0.0271
      7 C7         -0.4776   -0.8147    1.1223 C.ar      1 <0>        -0.0903
      8 C8          0.0798   -2.8413    2.4599 C.2       1 <0>         0.1429
      9 N1         -0.1207   -2.3472    3.6594 N.2       1 <0>        -0.2735
     10 N2         -0.0695   -3.2865    4.5350 N.2       1 <0>        -0.3399
     11 C9          0.1670   -4.4384    3.9477 C.2       1 <0>         0.3775
     12 S1          0.3214   -6.0039    4.7414 S.3       1 <0>        -0.8002
     13 N3          0.2648   -4.1967    2.6072 N.pl3     1 <0>        -0.4868
     14 C10         0.5173   -5.1759    1.5473 C.3       1 <0>         0.1345
     15 C11         2.0258   -5.3739    1.3847 C.3       1 <0>        -0.1593
     16 C12         2.2856   -6.3812    0.2944 C.2       1 <0>         0.5279
     17 O1          1.3558   -6.8906   -0.2947 O.2       1 <0>        -0.5363
     18 N4          3.5511   -6.7160   -0.0262 N.am      1 <0>        -0.7303
     19 C13         3.8037   -7.6952   -1.0861 C.3       1 <0>         0.1233
     20 C14         5.3121   -7.8932   -1.2487 C.3       1 <0>         0.0465
     21 O2          5.8468   -8.4772   -0.0592 O.3       1 <0>        -0.3047
     22 C15         7.1828   -8.7204   -0.0385 C.ar      1 <0>         0.1519
     23 C16         7.9565   -8.4045   -1.1198 C.ar      1 <0>        -0.2275
     24 C17         9.3270   -8.6474   -1.1142 C.ar      1 <0>        -0.0752
     25 C18         9.9371   -9.2059   -0.0324 C.ar      1 <0>        -0.1482
     26 C19         9.1767   -9.5449    1.0997 C.ar      1 <0>        -0.0188
     27 C20         7.7819   -9.2951    1.1007 C.ar      1 <0>        -0.0713
     28 C21         7.0228   -9.6296    2.2337 C.ar      1 <0>        -0.0802
     29 C22         7.6356  -10.1836    3.3157 C.ar      1 <0>        -0.1290
     30 C23         9.0082  -10.4247    3.3173 C.ar      1 <0>        -0.0997
     31 C24         9.7738  -10.1231    2.2331 C.ar      1 <0>        -0.1217
     32 H1         -0.3390    2.0075    0.0988 H         1 <0>         0.0693
     33 H2         -1.4638    1.4249   -1.1516 H         1 <0>         0.0639
     34 H3         -1.9109    1.3165    0.5678 H         1 <0>         0.0672
     35 H4          0.1425   -0.1159   -2.1174 H         1 <0>         0.1192
     36 H5          1.1656   -2.3502   -2.0078 H         1 <0>         0.1213
     37 H6          1.1421   -3.6169    0.1007 H         1 <0>         0.1272
     38 H7         -0.9364   -0.3810    1.9986 H         1 <0>         0.1328
     39 H8          0.0527   -6.1257    1.8119 H         1 <0>         0.1068
     40 H9          0.0953   -4.8137    0.6099 H         1 <0>         0.0934
     41 H10         2.4904   -4.4240    1.1201 H         1 <0>         0.0945
     42 H11         2.4478   -5.7361    2.3221 H         1 <0>         0.1146
     43 H12         4.2947   -6.3085    0.4449 H         1 <0>         0.4047
     44 H13         3.3390   -8.6450   -0.8215 H         1 <0>         0.0814
     45 H14         3.3817   -7.3329   -2.0236 H         1 <0>         0.0915
     46 H15         5.5028   -8.5531   -2.0950 H         1 <0>         0.0820
     47 H16         5.7881   -6.9287   -1.4256 H         1 <0>         0.0729
     48 H17         7.4980   -7.9604   -1.9910 H         1 <0>         0.1273
     49 H18         9.9160   -8.3891   -1.9818 H         1 <0>         0.1235
     50 H19        11.0015   -9.3880   -0.0446 H         1 <0>         0.1266
     51 H20         5.9582   -9.4481    2.2467 H         1 <0>         0.1342
     52 H21         7.0495  -10.4397    4.1859 H         1 <0>         0.1265
     53 H22         9.4700  -10.8649    4.1888 H         1 <0>         0.1240
     54 H23        10.8363  -10.3159    2.2482 H         1 <0>         0.1283
@<TRIPOS>BOND
     1    1    2 1
     2    1   32 1
     3    1   33 1
     4    1   34 1
     5    2    7 ar
     6    2    3 ar
     7    3    4 ar
     8    3   35 1
     9    4    5 ar
    10    4   36 1
    11    5    6 ar
    12    5   37 1
    13    6    7 ar
    14    6    8 1
    15    7   38 1
    16    8   13 1
    17    8    9 2
    18    9   10 1
    19   10   11 2
    20   11   12 1
    21   11   13 1
    22   13   14 1
    23   14   15 1
    24   14   39 1
    25   14   40 1
    26   15   16 1
    27   15   41 1
    28   15   42 1
    29   16   17 2
    30   16   18 am
    31   18   19 1
    32   18   43 1
    33   19   20 1
    34   19   44 1
    35   19   45 1
    36   20   21 1
    37   20   46 1
    38   20   47 1
    39   21   22 1
    40   22   27 ar
    41   22   23 ar
    42   23   24 ar
    43   23   48 1
    44   24   25 ar
    45   24   49 1
    46   25   26 ar
    47   25   50 1
    48   26   31 ar
    49   26   27 ar
    50   27   28 ar
    51   28   29 ar
    52   28   51 1
    53   29   30 ar
    54   29   52 1
    55   30   31 ar
    56   30   53 1
    57   31   54 1
@<TRIPOS>MOLECULE
ZINC13362005
   41    42     0     0     0
SMALL
USER_CHARGES
3-[[4-[(E)-3-(3-bromophenyl)prop-2-enoyl]phenyl]sulfonylamino]propanoic acid
@<TRIPOS>ATOM
      1 C1         -0.0487    3.8529    0.0228 C.ar      1 <0>        -0.1125
      2 C2         -1.2407    3.1596    0.0310 C.ar      1 <0>        -0.0827
      3 C3         -1.2324    1.7608    0.0175 C.ar      1 <0>        -0.0728
      4 C4         -0.0126    1.0758    0.0080 C.ar      1 <0>        -0.0663
      5 C5          1.1714    1.7837    0.0005 C.ar      1 <0>        -0.0944
      6 C6          1.1540    3.1688    0.0076 C.ar      1 <0>        -0.0785
      7 Br1         2.8219    0.8611   -0.0203 Br        1 <0>        -0.0463
      8 C7         -2.4997    1.0139    0.0194 C.2       1 <0>        -0.0138
      9 C8         -3.6756    1.6788    0.0285 C.2       1 <0>        -0.2271
     10 C9         -4.9352    0.9365    0.0304 C.2       1 <0>         0.4239
     11 O1         -4.9243   -0.2807    0.0237 O.2       1 <0>        -0.4492
     12 C10        -6.2227    1.6645    0.0405 C.ar      1 <0>        -0.1106
     13 C11        -6.2387    3.0605    0.0540 C.ar      1 <0>        -0.0938
     14 C12        -7.4429    3.7333    0.0585 C.ar      1 <0>        -0.0268
     15 C13        -8.6332    3.0276    0.0602 C.ar      1 <0>        -0.6481
     16 C14        -8.6245    1.6438    0.0522 C.ar      1 <0>        -0.0298
     17 C15        -7.4273    0.9587    0.0423 C.ar      1 <0>        -0.0867
     18 S1        -10.1670    3.8949    0.0722 S.o2      1 <0>         2.6928
     19 O2         -9.9100    5.1820   -0.4723 O.2       1 <0>        -0.9520
     20 O3        -11.1360    3.0139   -0.4793 O.2       1 <0>        -0.9641
     21 N1        -10.5860    4.1267    1.6575 N.pl3     1 <0>        -1.1133
     22 C16        -9.7587    4.9771    2.5170 C.3       1 <0>         0.1307
     23 C17       -10.5363    5.3284    3.7870 C.3       1 <0>        -0.1645
     24 C18        -9.6853    6.2031    4.6712 C.2       1 <0>         0.4644
     25 O4         -8.5713    6.5137    4.3214 O.co2     1 <0>        -0.6389
     26 H1         -0.0539    4.9329    0.0280 H         1 <0>         0.1393
     27 H2         -2.1784    3.6953    0.0432 H         1 <0>         0.1379
     28 H3          0.0021   -0.0041    0.0020 H         1 <0>         0.1388
     29 H4          2.0841    3.7177    0.0010 H         1 <0>         0.1361
     30 H5         -2.4901   -0.0660    0.0134 H         1 <0>         0.1388
     31 H6         -3.6852    2.7588    0.0345 H         1 <0>         0.1395
     32 H7         -5.3104    3.6124    0.0568 H         1 <0>         0.1419
     33 H8         -7.4567    4.8131    0.0652 H         1 <0>         0.1517
     34 H9         -9.5570    1.0991    0.0532 H         1 <0>         0.1472
     35 H10        -7.4218   -0.1213    0.0356 H         1 <0>         0.1428
     36 H11       -11.3791    3.6994    2.0170 H         1 <0>         0.4172
     37 H12        -8.8464    4.4444    2.7852 H         1 <0>         0.0669
     38 H13        -9.5017    5.8922    1.9835 H         1 <0>         0.0835
     39 H14       -11.4486    5.8611    3.5188 H         1 <0>         0.0748
     40 H15       -10.7933    4.4133    4.3205 H         1 <0>         0.0723
     41 O5        -10.1650    6.6373    5.8472 O.co2     1 <0>        -0.7684
@<TRIPOS>BOND
     1    1    6 ar
     2    1    2 ar
     3    1   26 1
     4    2    3 ar
     5    2   27 1
     6    3    4 ar
     7    3    8 1
     8    4    5 ar
     9    4   28 1
    10    5    6 ar
    11    5    7 1
    12    6   29 1
    13    8    9 2
    14    8   30 1
    15    9   10 1
    16    9   31 1
    17   10   11 2
    18   10   12 1
    19   12   17 ar
    20   12   13 ar
    21   13   14 ar
    22   13   32 1
    23   14   15 ar
    24   14   33 1
    25   15   16 ar
    26   15   18 1
    27   16   17 ar
    28   16   34 1
    29   17   35 1
    30   18   19 2
    31   18   20 2
    32   18   21 1
    33   21   22 1
    34   21   36 1
    35   22   23 1
    36   22   37 1
    37   22   38 1
    38   23   24 1
    39   23   39 1
    40   23   40 1
    41   24   25 2
    42   24   41 1
@<TRIPOS>MOLECULE
ZINC33525699
   57    60     0     0     0
SMALL
USER_CHARGES
(4E,5R)-1-benzyl-5-(3-hydroxyphenyl)-4-[hydroxy-(4-propoxyphenyl)methylene]pyrrolidine-2,3-dione
@<TRIPOS>ATOM
      1 C1          2.5488   -6.8933    2.0598 C.3       1 <0>        -0.1509
      2 C2          3.4420   -6.0206    1.1759 C.3       1 <0>        -0.1234
      3 C3          2.9275   -4.5799    1.1956 C.3       1 <0>         0.0566
      4 O1          3.7617   -3.7648    0.3700 O.3       1 <0>        -0.3201
      5 C4          3.4405   -2.4497    0.2775 C.ar      1 <0>         0.1242
      6 C5          4.2120   -1.6015   -0.5097 C.ar      1 <0>        -0.1657
      7 C6          3.8902   -0.2671   -0.6072 C.ar      1 <0>        -0.0498
      8 C7          2.7842    0.2364    0.0884 C.ar      1 <0>        -0.1088
      9 C8          2.0144   -0.6204    0.8845 C.ar      1 <0>        -0.0135
     10 C9          2.3407   -1.9545    0.9700 C.ar      1 <0>        -0.2147
     11 C10         2.4357    1.6619   -0.0123 C.2       1 <0>         0.4019
     12 C11         1.1451    2.0366   -0.3327 C.2       1 <0>        -0.4967
     13 C12         0.5827    3.4392   -0.3416 C.3       1 <0>         0.2648
     14 H1          0.6451    3.9146    0.6484 H         1 <0>         0.0687
     15 N1         -0.8217    3.3256   -0.7458 N.am      1 <0>        -0.5955
     16 C13        -1.1086    2.0320   -0.9688 C.2       1 <0>         0.4782
     17 O2         -2.1908    1.6102   -1.3220 O.2       1 <0>        -0.5322
     18 C14         0.0930    1.1917   -0.7158 C.2       1 <0>         0.3694
     19 O3          0.1538   -0.0195   -0.8272 O.3       1 <0>        -0.4984
     20 C15        -1.7589    4.4423   -0.8900 C.3       1 <0>         0.1685
     21 C16        -1.6999    4.9686   -2.3009 C.ar      1 <0>        -0.1072
     22 C17        -0.8143    5.9792   -2.6252 C.ar      1 <0>        -0.0760
     23 C18        -0.7569    6.4586   -3.9205 C.ar      1 <0>        -0.1211
     24 C19        -1.5921    5.9343   -4.8892 C.ar      1 <0>        -0.1189
     25 C20        -2.4817    4.9276   -4.5636 C.ar      1 <0>        -0.1306
     26 C21        -2.5355    4.4446   -3.2695 C.ar      1 <0>        -0.0975
     27 C22         1.3375    4.2916   -1.3288 C.ar      1 <0>        -0.0246
     28 C23         1.0695    4.1841   -2.6812 C.ar      1 <0>        -0.1269
     29 C24         1.7563    4.9687   -3.5889 C.ar      1 <0>        -0.0834
     30 C25         2.7205    5.8545   -3.1476 C.ar      1 <0>        -0.1730
     31 C26         2.9951    5.9602   -1.7920 C.ar      1 <0>         0.1425
     32 C27         2.3004    5.1756   -0.8826 C.ar      1 <0>        -0.1712
     33 O4          3.9433    6.8304   -1.3555 O.3       1 <0>        -0.5186
     34 O5          3.3771    2.6043    0.2086 O.2       1 <0>        -0.6309
     35 H2          2.9188   -7.9291    2.0456 H         1 <0>         0.0620
     36 H3          1.5175   -6.8670    1.6782 H         1 <0>         0.0582
     37 H4          2.5680   -6.5112    3.0911 H         1 <0>         0.0573
     38 H5          4.4733   -6.0469    1.5575 H         1 <0>         0.0716
     39 H6          3.4228   -6.4027    0.1446 H         1 <0>         0.0723
     40 H7          1.8961   -4.5536    0.8140 H         1 <0>         0.0620
     41 H8          2.9467   -4.1977    2.2269 H         1 <0>         0.0599
     42 H9          5.0649   -1.9909   -1.0458 H         1 <0>         0.1236
     43 H10         4.4895    0.3906   -1.2193 H         1 <0>         0.1261
     44 H11         1.1633   -0.2358    1.4268 H         1 <0>         0.1196
     45 H12         1.7445   -2.6173    1.5797 H         1 <0>         0.1206
     46 H13        -2.7794    4.0952   -0.6705 H         1 <0>         0.0875
     47 H14        -1.4852    5.2437   -0.1879 H         1 <0>         0.0846
     48 H15        -0.1646    6.3917   -1.8674 H         1 <0>         0.1170
     49 H16        -0.0621    7.2454   -4.1748 H         1 <0>         0.1167
     50 H17        -1.5498    6.3114   -5.9004 H         1 <0>         0.1146
     51 H18        -3.1345    4.5182   -5.3204 H         1 <0>         0.1156
     52 H19        -3.2305    3.6581   -3.0151 H         1 <0>         0.1214
     53 H20         0.3196    3.4888   -3.0285 H         1 <0>         0.1079
     54 H21         1.5423    4.8858   -4.6442 H         1 <0>         0.1140
     55 H22         3.2600    6.4639   -3.8574 H         1 <0>         0.1142
     56 H23         2.5127    5.2559    0.1733 H         1 <0>         0.1218
     57 H24         4.1604    6.9135   -0.2803 H         1 <0>         0.4261
@<TRIPOS>BOND
     1    1    2 1
     2    1   35 1
     3    1   36 1
     4    1   37 1
     5    2    3 1
     6    2   38 1
     7    2   39 1
     8    3    4 1
     9    3   40 1
    10    3   41 1
    11    4    5 1
    12    5   10 ar
    13    5    6 ar
    14    6    7 ar
    15    6   42 1
    16    7    8 ar
    17    7   43 1
    18    8    9 ar
    19    8   11 1
    20    9   10 ar
    21    9   44 1
    22   10   45 1
    23   11   12 1
    24   11   34 2
    25   12   18 2
    26   12   13 1
    27   13   14 1
    28   13   15 1
    29   13   27 1
    30   15   16 am
    31   15   20 1
    32   16   17 2
    33   16   18 1
    34   18   19 1
    35   20   21 1
    36   20   46 1
    37   20   47 1
    38   21   26 ar
    39   21   22 ar
    40   22   23 ar
    41   22   48 1
    42   23   24 ar
    43   23   49 1
    44   24   25 ar
    45   24   50 1
    46   25   26 ar
    47   25   51 1
    48   26   52 1
    49   27   32 ar
    50   27   28 ar
    51   28   29 ar
    52   28   53 1
    53   29   30 ar
    54   29   54 1
    55   30   31 ar
    56   30   55 1
    57   31   32 ar
    58   31   33 1
    59   32   56 1
    60   33   57 1
@<TRIPOS>MOLECULE
ZINC39359424
   51    55     0     0     0
SMALL
USER_CHARGES

@<TRIPOS>ATOM
      1 C1         -0.0184    1.5028    0.0103 C.3       1 <0>        -0.0854
      2 C2          0.0021   -0.0041    0.0020 C.2       1 <0>        -0.0397
      3 C3         -1.0639   -0.7675    0.0029 C.2       1 <0>        -0.1036
      4 C4         -2.5318   -0.5042    0.1623 C.3       1 <0>         0.0956
      5 H1         -2.6881    0.4932    0.5733 H         1 <0>         0.1050
      6 C5         -3.0704   -1.5521    1.1244 C.2       1 <0>        -0.3072
      7 C6         -2.3418   -2.6228    1.5044 C.2       1 <0>         0.2571
      8 C7         -2.9416   -3.6571    2.4356 C.3       1 <0>        -0.0950
      9 C8         -3.9195   -2.9812    3.3969 C.3       1 <0>         0.0101
     10 H2         -3.3936   -2.2334    3.9904 H         1 <0>         0.1043
     11 C9         -5.0179   -2.3048    2.5691 C.3       1 <0>        -0.1617
     12 C10        -4.3750   -1.3475    1.6048 C.2       1 <0>         0.4084
     13 O1         -4.9983   -0.3731    1.2319 O.2       1 <0>        -0.4645
     14 C11        -4.5319   -4.0138    4.3078 C.2       1 <0>        -0.1393
     15 C12        -4.4884   -4.0922    5.6603 C.2       1 <0>        -0.1524
     16 C13        -5.1314   -5.1402    6.2920 C.2       1 <0>        -0.1575
     17 C14        -5.7865   -6.0584    5.5403 C.2       1 <0>        -0.1735
     18 S1         -5.5096   -5.4468    3.8860 S.3       1 <0>         0.0451
     19 N1         -1.0479   -2.8540    1.1110 N.pl3     1 <0>        -0.6939
     20 C15        -0.5276   -2.1976   -0.0913 C.3       1 <0>         0.1966
     21 H3         -0.8418   -2.7027   -1.0046 H         1 <0>         0.1524
     22 N2          0.9211   -1.9846   -0.0308 N.2       1 <0>        -0.1748
     23 N3          1.1267   -0.7642   -0.0133 N.2       1 <0>        -0.1187
     24 C16        -3.2234   -0.6244   -1.1712 C.ar      1 <0>        -0.1268
     25 C17        -3.1831   -1.8202   -1.8642 C.ar      1 <0>        -0.0767
     26 C18        -3.8159   -1.9328   -3.0871 C.ar      1 <0>        -0.1601
     27 C19        -4.4927   -0.8450   -3.6194 C.ar      1 <0>         0.1457
     28 C20        -4.5320    0.3536   -2.9218 C.ar      1 <0>        -0.2141
     29 C21        -3.9020    0.4595   -1.6969 C.ar      1 <0>        -0.0500
     30 O2         -5.1156   -0.9531   -4.8223 O.3       1 <0>        -0.2809
     31 C22        -5.7928    0.2073   -5.3089 C.3       1 <0>        -0.0071
     32 C23        -6.4187   -0.0995   -6.6450 C.2       1 <0>         0.5012
     33 O3         -6.2962   -1.2091   -7.1351 O.co2     1 <0>        -0.6713
     34 O4         -7.0476    0.7618   -7.2358 O.co2     1 <0>        -0.6870
     35 H4          1.0042    1.8801    0.0026 H         1 <0>         0.0796
     36 H5         -0.5455    1.8639   -0.8728 H         1 <0>         0.0823
     37 H6         -0.5286    1.8543    0.9071 H         1 <0>         0.0786
     38 H7         -3.4705   -4.4090    1.8498 H         1 <0>         0.1044
     39 H8         -2.1459   -4.1366    3.0056 H         1 <0>         0.0922
     40 H9         -5.5767   -3.0601    2.0165 H         1 <0>         0.1024
     41 H10        -5.6912   -1.7600    3.2308 H         1 <0>         0.1010
     42 H11        -3.9589   -3.3473    6.2357 H         1 <0>         0.1331
     43 H12        -5.1118   -5.2263    7.3684 H         1 <0>         0.1332
     44 H13        -6.3366   -6.9313    5.8595 H         1 <0>         0.1852
     45 H14        -0.4806   -3.4489    1.6259 H         1 <0>         0.4166
     46 H15        -2.6562   -2.6667   -1.4494 H         1 <0>         0.1112
     47 H16        -3.7836   -2.8668   -3.6284 H         1 <0>         0.1289
     48 H17        -5.0582    1.2018   -3.3341 H         1 <0>         0.1296
     49 H18        -3.9361    1.3910   -1.1514 H         1 <0>         0.1213
     50 H19        -6.5698    0.4978   -4.6018 H         1 <0>         0.0602
     51 H20        -5.0797    1.0240   -5.4207 H         1 <0>         0.0596
@<TRIPOS>BOND
     1    1    2 1
     2    1   35 1
     3    1   36 1
     4    1   37 1
     5    2   23 1
     6    2    3 2
     7    3   20 1
     8    3    4 1
     9    4    5 1
    10    4    6 1
    11    4   24 1
    12    6   12 1
    13    6    7 2
    14    7    8 1
    15    7   19 1
    16    8    9 1
    17    8   38 1
    18    8   39 1
    19    9   10 1
    20    9   11 1
    21    9   14 1
    22   11   12 1
    23   11   40 1
    24   11   41 1
    25   12   13 2
    26   14   18 1
    27   14   15 2
    28   15   16 1
    29   15   42 1
    30   16   17 2
    31   16   43 1
    32   17   18 1
    33   17   44 1
    34   19   20 1
    35   19   45 1
    36   20   21 1
    37   20   22 1
    38   22   23 2
    39   24   29 ar
    40   24   25 ar
    41   25   26 ar
    42   25   46 1
    43   26   27 ar
    44   26   47 1
    45   27   28 ar
    46   27   30 1
    47   28   29 ar
    48   28   48 1
    49   29   49 1
    50   30   31 1
    51   31   32 1
    52   31   50 1
    53   31   51 1
    54   32   33 2
    55   32   34 1
@<TRIPOS>MOLECULE
ZINC15048369
   54    57     0     0     0
SMALL
USER_CHARGES

@<TRIPOS>ATOM
      1 C1         -0.0187    1.5258    0.0104 C.3       1 <0>        -0.1788
      2 C2          0.0021   -0.0041    0.0020 C.3       1 <0>         0.0951
      3 H1         -1.0205   -0.3814    0.0098 H         1 <0>         0.1400
      4 C3          0.7309   -0.5033    1.2229 C.2       1 <0>         0.5109
      5 O1          1.7253   -1.1865    1.0985 O.2       1 <0>        -0.5231
      6 N1          0.2778   -0.1906    2.4531 N.am      1 <0>        -0.7127
      7 C4          0.9864   -0.6759    3.6400 C.3       1 <0>         0.1186
      8 C5          0.2702   -0.1825    4.8988 C.3       1 <0>        -0.1036
      9 C6          1.0102   -0.6893    6.1383 C.3       1 <0>        -0.1805
     10 C7          0.3049   -0.2033    7.3782 C.2       1 <0>         0.4903
     11 O2         -0.6969    0.4847    7.2796 O.co2     1 <0>        -0.6994
     12 O3          0.7359   -0.4981    8.4799 O.co2     1 <0>        -0.7049
     13 N2          0.6878   -0.4765   -1.2033 N.am      1 <0>        -0.5064
     14 C8          0.0318   -1.2360   -2.0645 C.2       1 <0>         0.5479
     15 O4         -1.1293   -1.5534   -1.8814 O.2       1 <0>        -0.4633
     16 C9          0.7763   -1.6789   -3.2576 C.2       1 <0>        -0.2351
     17 C10         0.3648   -2.4564   -4.3001 C.2       1 <0>         0.0868
     18 C11         1.2599   -2.7595   -5.3527 C.ar      1 <0>        -0.0950
     19 C12         1.9954   -1.7312   -5.9851 C.ar      1 <0>        -0.0078
     20 C13         1.8584   -0.3918   -5.5870 C.ar      1 <0>        -0.1242
     21 C14         2.5819    0.5743   -6.2159 C.ar      1 <0>        -0.0840
     22 C15         3.4616    0.2702   -7.2525 C.ar      1 <0>        -0.1169
     23 C16         3.6396   -1.0057   -7.6846 C.ar      1 <0>        -0.0954
     24 C17         2.9193   -2.0542   -7.0736 C.ar      1 <0>        -0.0595
     25 C18         3.0791   -3.3757   -7.4946 C.ar      1 <0>        -0.0515
     26 C19         2.3559   -4.3983   -6.8777 C.ar      1 <0>        -0.0635
     27 C20         1.4344   -4.0951   -5.7815 C.ar      1 <0>        -0.0008
     28 C21         0.7291   -5.1483   -5.1777 C.ar      1 <0>        -0.1231
     29 C22         0.9203   -6.4233   -5.6138 C.ar      1 <0>        -0.0924
     30 C23         1.8035   -6.7162   -6.6507 C.ar      1 <0>        -0.1211
     31 C24         2.5024   -5.7405   -7.2883 C.ar      1 <0>        -0.0941
     32 S1          2.3658   -0.9160   -2.9631 S.3       1 <0>         0.0776
     33 C25         1.9723   -0.1226   -1.4126 C.2       1 <0>         0.2683
     34 S2          2.9814    0.8496   -0.4290 S.2       1 <0>        -0.2881
     35 H2          1.0039    1.9031    0.0027 H         1 <0>         0.1010
     36 H3         -0.5459    1.8868   -0.8726 H         1 <0>         0.0713
     37 H4         -0.5289    1.8773    0.9072 H         1 <0>         0.0907
     38 H5         -0.5174    0.3558    2.5526 H         1 <0>         0.4021
     39 H6          1.0012   -1.7658    3.6340 H         1 <0>         0.0636
     40 H7          2.0090   -0.2986    3.6322 H         1 <0>         0.0680
     41 H8          0.2555    0.9074    4.9048 H         1 <0>         0.0679
     42 H9         -0.7524   -0.5597    4.9065 H         1 <0>         0.0662
     43 H10         1.0250   -1.7792    6.1323 H         1 <0>         0.0589
     44 H11         2.0328   -0.3120    6.1306 H         1 <0>         0.0602
     45 H12        -0.6443   -2.8406   -4.3219 H         1 <0>         0.1635
     46 H13         1.1825   -0.1296   -4.7864 H         1 <0>         0.1325
     47 H14         2.4709    1.6023   -5.9038 H         1 <0>         0.1280
     48 H15         4.0155    1.0683   -7.7244 H         1 <0>         0.1271
     49 H16         4.3275   -1.2160   -8.4902 H         1 <0>         0.1326
     50 H17         3.7624   -3.6071   -8.2983 H         1 <0>         0.1393
     51 H18         0.0391   -4.9479   -4.3714 H         1 <0>         0.1311
     52 H19         0.3741   -7.2279   -5.1442 H         1 <0>         0.1271
     53 H20         1.9252   -7.7423   -6.9648 H         1 <0>         0.1260
     54 H21         3.1805   -5.9929   -8.0901 H         1 <0>         0.1325
@<TRIPOS>BOND
     1    1    2 1
     2    1   35 1
     3    1   36 1
     4    1   37 1
     5    2    3 1
     6    2    4 1
     7    2   13 1
     8    4    5 2
     9    4    6 am
    10    6    7 1
    11    6   38 1
    12    7    8 1
    13    7   39 1
    14    7   40 1
    15    8    9 1
    16    8   41 1
    17    8   42 1
    18    9   10 1
    19    9   43 1
    20    9   44 1
    21   10   11 2
    22   10   12 1
    23   13   33 1
    24   13   14 am
    25   14   15 2
    26   14   16 1
    27   16   17 2
    28   16   32 1
    29   17   18 1
    30   17   45 1
    31   18   27 ar
    32   18   19 ar
    33   19   24 ar
    34   19   20 ar
    35   20   21 ar
    36   20   46 1
    37   21   22 ar
    38   21   47 1
    39   22   23 ar
    40   22   48 1
    41   23   24 ar
    42   23   49 1
    43   24   25 ar
    44   25   26 ar
    45   25   50 1
    46   26   31 ar
    47   26   27 ar
    48   27   28 ar
    49   28   29 ar
    50   28   51 1
    51   29   30 ar
    52   29   52 1
    53   30   31 ar
    54   30   53 1
    55   31   54 1
    56   32   33 1
    57   33   34 2
@<TRIPOS>MOLECULE
ZINC35397599
   46    48     0     0     0
SMALL
USER_CHARGES

@<TRIPOS>ATOM
      1 C1          0.2477    0.9969    0.2293 C.2       1 <0>        -0.0333
      2 C2          1.4338    1.7054    0.1770 C.2       1 <0>        -0.1356
      3 C3          2.5800    1.0464   -0.1256 C.2       1 <0>        -0.1666
      4 S1          1.9965   -0.6261   -0.3483 S.3       1 <0>         0.2196
      5 C4          0.2655   -0.3344   -0.0233 C.2       1 <0>        -0.6729
      6 S2         -1.0728   -1.4806   -0.0285 S.o2      1 <0>         2.6341
      7 O1         -0.5097   -2.7634    0.2096 O.2       1 <0>        -1.0096
      8 O2         -2.0849   -0.9270    0.8011 O.2       1 <0>        -1.0075
      9 N1         -1.6856   -1.5108   -1.5667 N.2       1 <0>        -1.0527
     10 C5         -2.7702   -2.3427   -1.8722 C.ar      1 <0>         0.2620
     11 C6         -3.2854   -2.3774   -3.1611 C.ar      1 <0>        -0.0148
     12 C7         -4.3712   -3.2249   -3.4198 C.ar      1 <0>        -0.1166
     13 C8         -4.8909   -4.0011   -2.3683 C.ar      1 <0>         0.3563
     14 N2         -4.3622   -3.9305   -1.1570 N.ar      1 <0>        -0.4256
     15 C9         -3.3371   -3.1455   -0.8894 C.ar      1 <0>        -0.0845
     16 N3         -5.9630   -4.8444   -2.6018 N.pl3     1 <0>        -0.6188
     17 C10        -5.7736   -6.3016   -2.6092 C.3       1 <0>         0.1377
     18 C11        -5.4480   -6.7683   -1.1961 C.3       1 <0>        -0.1523
     19 C12        -6.7192   -6.6922   -0.3337 C.3       1 <0>        -0.1248
     20 C13        -6.9695   -5.2448    0.0743 C.3       1 <0>        -0.1221
     21 C14        -8.2592   -4.7108   -0.5756 C.3       1 <0>        -0.1164
     22 C15        -8.3056   -5.1261   -2.0462 C.3       1 <0>        -0.1505
     23 C16        -7.2892   -4.2983   -2.8363 C.3       1 <0>         0.1436
     24 C17        -4.9568   -3.3010   -4.7664 C.2       1 <0>         0.5316
     25 O3         -4.5776   -2.5357   -5.6426 O.co2     1 <0>        -0.6665
     26 O4         -5.8234   -4.1296   -5.0107 O.co2     1 <0>        -0.6551
     27 Br1         4.3393    1.7236   -0.2739 Br        1 <0>         0.0419
     28 H1         -0.6786    1.4963    0.4722 H         1 <0>         0.1544
     29 H2          1.4473    2.7672    0.3737 H         1 <0>         0.1483
     30 H3         -2.8607   -1.7666   -3.9440 H         1 <0>         0.1660
     31 H4         -2.9337   -3.1226    0.1122 H         1 <0>         0.1579
     32 H5         -6.6879   -6.7863   -2.9516 H         1 <0>         0.0924
     33 H6         -4.9512   -6.5590   -3.2767 H         1 <0>         0.0648
     34 H7         -5.0891   -7.7971   -1.2259 H         1 <0>         0.0784
     35 H8         -4.6786   -6.1255   -0.7684 H         1 <0>         0.0474
     36 H9         -7.5699   -7.0606   -0.9070 H         1 <0>         0.0797
     37 H10        -6.5900   -7.3043    0.5590 H         1 <0>         0.0608
     38 H11        -7.0643   -5.1888    1.1587 H         1 <0>         0.0601
     39 H12        -6.1266   -4.6313   -0.2438 H         1 <0>         0.0462
     40 H13        -9.1244   -5.1216   -0.0553 H         1 <0>         0.0599
     41 H14        -8.2772   -3.6232   -0.5052 H         1 <0>         0.0615
     42 H15        -8.0604   -6.1846   -2.1329 H         1 <0>         0.0807
     43 H16        -9.3060   -4.9509   -2.4419 H         1 <0>         0.0713
     44 H17        -7.3232   -3.2610   -2.5032 H         1 <0>         0.0588
     45 H18        -7.5250   -4.3508   -3.8992 H         1 <0>         0.0946
     46 H19        -4.7368   -4.4749   -0.4470 H         1 <0>         0.4161
@<TRIPOS>BOND
     1    1    5 2
     2    1    2 1
     3    1   28 1
     4    2    3 2
     5    2   29 1
     6    3    4 1
     7    3   27 1
     8    4    5 1
     9    5    6 1
    10    6    7 2
    11    6    8 2
    12    6    9 1
    13    9   10 1
    14   10   15 ar
    15   10   11 ar
    16   11   12 ar
    17   11   30 1
    18   12   13 ar
    19   12   24 1
    20   13   14 ar
    21   13   16 1
    22   14   15 ar
    23   14   46 1
    24   15   31 1
    25   16   23 1
    26   16   17 1
    27   17   18 1
    28   17   32 1
    29   17   33 1
    30   18   19 1
    31   18   34 1
    32   18   35 1
    33   19   20 1
    34   19   36 1
    35   19   37 1
    36   20   21 1
    37   20   38 1
    38   20   39 1
    39   21   22 1
    40   21   40 1
    41   21   41 1
    42   22   23 1
    43   22   42 1
    44   22   43 1
    45   23   44 1
    46   23   45 1
    47   24   25 2
    48   24   26 1
@<TRIPOS>MOLECULE
ZINC19202978
   62    65     0     0     0
SMALL
USER_CHARGES
3-[(3R)-3-(4-dimethylaminophenyl)-3-(p-tolylamino)propanoyl]-4-hydroxy-1-methyl-quinolin-2-one
@<TRIPOS>ATOM
      1 C1        -11.4717    8.6086    1.8211 C.3       1 <0>        -0.0994
      2 C2         -9.9720    8.4825    1.7444 C.ar      1 <0>        -0.1697
      3 C3         -9.2306    8.3506    2.9042 C.ar      1 <0>        -0.0718
      4 C4         -7.8561    8.2343    2.8376 C.ar      1 <0>        -0.2035
      5 C5         -7.2183    8.2501    1.6036 C.ar      1 <0>         0.2471
      6 C6         -7.9657    8.3881    0.4408 C.ar      1 <0>        -0.1921
      7 C7         -9.3403    8.4986    0.5144 C.ar      1 <0>        -0.0718
      8 N1         -5.8283    8.1333    1.5325 N.pl3     1 <0>        -0.7277
      9 C8         -5.1476    8.2606    0.2416 C.3       1 <0>         0.2074
     10 H1         -5.7723    7.7607   -0.5133 H         1 <0>         0.0807
     11 C9         -3.7648    7.6115    0.3280 C.3       1 <0>        -0.1420
     12 C10        -3.9188    6.1274    0.5398 C.2       1 <0>         0.4146
     13 O1         -5.0267    5.6367    0.6144 O.2       1 <0>        -0.4832
     14 C11        -2.7713    5.3055    0.6518 C.2       1 <0>        -0.5024
     15 C12        -2.8985    3.9439    0.9579 C.2       1 <0>         0.3690
     16 C13        -1.6776    3.1395    1.0627 C.ar      1 <0>        -0.1530
     17 C14        -1.7487    1.7734    1.3610 C.ar      1 <0>        -0.0349
     18 C15        -0.6015    1.0391    1.4597 C.ar      1 <0>        -0.1769
     19 C16         0.6357    1.6348    1.2561 C.ar      1 <0>        -0.0759
     20 C17         0.7289    2.9764    0.9559 C.ar      1 <0>        -0.1870
     21 C18        -0.4264    3.7472    0.8551 C.ar      1 <0>         0.2057
     22 N2         -0.3394    5.0912    0.5553 N.pl3     1 <0>        -0.5460
     23 C19        -1.4328    5.8652    0.4501 C.2       1 <0>         0.5647
     24 O2         -1.3094    7.0470    0.1832 O.3       1 <0>        -0.5743
     25 C20         0.9808    5.6905    0.3454 C.3       1 <0>         0.0660
     26 O3         -4.1121    3.3882    1.1505 O.2       1 <0>        -0.5986
     27 C21        -4.9970    9.7194   -0.1052 C.ar      1 <0>        -0.1338
     28 C22        -4.5715   10.6168    0.8570 C.ar      1 <0>        -0.0494
     29 C23        -4.4270   11.9535    0.5410 C.ar      1 <0>        -0.1928
     30 C24        -4.7205   12.3979   -0.7420 C.ar      1 <0>         0.2029
     31 C25        -5.1531   11.4946   -1.7045 C.ar      1 <0>        -0.1915
     32 C26        -5.2900   10.1584   -1.3834 C.ar      1 <0>        -0.0670
     33 N3         -4.5813   13.7500   -1.0633 N.pl3     1 <0>        -0.6431
     34 C27        -5.0075   14.2384   -2.3771 C.3       1 <0>         0.0972
     35 C28        -4.0092   14.6799   -0.0864 C.3       1 <0>         0.0972
     36 H2        -11.7891    8.5754    2.8738 H         1 <0>         0.0551
     37 H3        -11.9381    7.7779    1.2711 H         1 <0>         0.0572
     38 H4        -11.7826    9.5645    1.3744 H         1 <0>         0.0555
     39 H5         -9.7271    8.3380    3.8633 H         1 <0>         0.1106
     40 H6         -7.2777    8.1309    3.7437 H         1 <0>         0.1131
     41 H7         -7.4726    8.4052   -0.5199 H         1 <0>         0.1160
     42 H8         -9.9223    8.6018   -0.3896 H         1 <0>         0.1103
     43 H9         -5.2447    7.9457    2.4459 H         1 <0>         0.4117
     44 H10        -3.2153    7.7933   -0.6074 H         1 <0>         0.1005
     45 H11        -3.2076    8.0463    1.1709 H         1 <0>         0.0848
     46 H12        -2.7080    1.3024    1.5168 H         1 <0>         0.1328
     47 H13        -0.6574   -0.0138    1.6935 H         1 <0>         0.1188
     48 H14         1.5343    1.0406    1.3333 H         1 <0>         0.1197
     49 H15         1.6966    3.4294    0.7988 H         1 <0>         0.1243
     50 H16         0.8657    6.7605    0.1177 H         1 <0>         0.0967
     51 H17         1.4819    5.1885   -0.4954 H         1 <0>         0.0604
     52 H18         1.5860    5.5725    1.2563 H         1 <0>         0.0604
     53 H19        -4.3480   10.2714    1.8555 H         1 <0>         0.1161
     54 H20        -4.0904   12.6531    1.2917 H         1 <0>         0.1146
     55 H21        -5.3818   11.8368   -2.7030 H         1 <0>         0.1157
     56 H22        -5.6266    9.4557   -2.1312 H         1 <0>         0.1177
     57 H23        -4.8206   15.3203   -2.4444 H         1 <0>         0.0689
     58 H24        -6.0818   14.0429   -2.5101 H         1 <0>         0.0513
     59 H25        -4.4401   13.7187   -3.1632 H         1 <0>         0.0516
     60 H26        -3.9805   15.6919   -0.5166 H         1 <0>         0.0690
     61 H27        -2.9879   14.3609    0.1690 H         1 <0>         0.0519
     62 H28        -4.6297   14.6851    0.8219 H         1 <0>         0.0510
@<TRIPOS>BOND
     1    1    2 1
     2    1   36 1
     3    1   37 1
     4    1   38 1
     5    2    7 ar
     6    2    3 ar
     7    3    4 ar
     8    3   39 1
     9    4    5 ar
    10    4   40 1
    11    5    6 ar
    12    5    8 1
    13    6    7 ar
    14    6   41 1
    15    7   42 1
    16    8    9 1
    17    8   43 1
    18    9   10 1
    19    9   11 1
    20    9   27 1
    21   11   12 1
    22   11   44 1
    23   11   45 1
    24   12   13 2
    25   12   14 1
    26   14   23 2
    27   14   15 1
    28   15   16 1
    29   15   26 2
    30   16   21 ar
    31   16   17 ar
    32   17   18 ar
    33   17   46 1
    34   18   19 ar
    35   18   47 1
    36   19   20 ar
    37   19   48 1
    38   20   21 ar
    39   20   49 1
    40   21   22 1
    41   22   23 1
    42   22   25 1
    43   23   24 1
    44   25   50 1
    45   25   51 1
    46   25   52 1
    47   27   32 ar
    48   27   28 ar
    49   28   29 ar
    50   28   53 1
    51   29   30 ar
    52   29   54 1
    53   30   31 ar
    54   30   33 1
    55   31   32 ar
    56   31   55 1
    57   32   56 1
    58   33   34 1
    59   33   35 1
    60   34   57 1
    61   34   58 1
    62   34   59 1
    63   35   60 1
    64   35   61 1
    65   35   62 1
@<TRIPOS>MOLECULE
ZINC38798827
   52    55     0     0     0
SMALL
USER_CHARGES

@<TRIPOS>ATOM
      1 C1         -0.0157    1.3058    0.0092 C.2       1 <0>        -0.1996
      2 C2          0.0021   -0.0041    0.0020 C.2       1 <0>        -0.1328
      3 C3         -1.2926   -0.7753    0.0102 C.3       1 <0>         0.1473
      4 N1         -1.3176   -1.6997   -1.1260 N.pl3     1 <0>        -0.4798
      5 C4         -1.7895   -1.4484   -2.3847 C.2       1 <0>         0.1291
      6 N2         -1.6241   -2.5347   -3.0850 N.2       1 <0>        -0.2872
      7 N3         -1.0840   -3.4487   -2.3606 N.2       1 <0>        -0.3451
      8 C5         -0.8691   -2.9891   -1.1497 C.2       1 <0>         0.3787
      9 S1         -0.1425   -3.8705    0.1918 S.3       1 <0>        -0.8182
     10 C6         -2.3902   -0.1549   -2.8716 C.3       1 <0>         0.0317
     11 C7         -1.3015    0.7267   -3.4272 C.2       1 <0>         0.2044
     12 N4         -0.1067    0.3388   -3.4386 N.2       1 <0>        -0.4871
     13 C8          0.9584    1.2056   -3.9829 C.3       1 <0>         0.3799
     14 H1          1.5415    1.6622   -3.1831 H         1 <0>         0.1388
     15 S2         -0.0509    2.4678   -4.8767 S.3       1 <0>        -0.3471
     16 C9         -1.6290    2.1022   -3.9914 C.3       1 <0>        -0.0716
     17 N5          1.8219    0.4662   -4.9069 N.am      1 <0>        -0.6897
     18 C10         3.0136    0.9790   -5.2719 C.2       1 <0>         0.5671
     19 O1          3.3720    2.0553   -4.8344 O.2       1 <0>        -0.5229
     20 C11         3.8838    0.2339   -6.2030 C.ar      1 <0>        -0.1229
     21 C12         3.4689   -1.0010   -6.7104 C.ar      1 <0>        -0.0770
     22 C13         4.2734   -1.6908   -7.5718 C.ar      1 <0>        -0.0977
     23 C14         5.5133   -1.1613   -7.9466 C.ar      1 <0>         0.0406
     24 C15         5.9280    0.0748   -7.4384 C.ar      1 <0>        -0.1027
     25 C16         5.1200    0.7662   -6.5815 C.ar      1 <0>        -0.0541
     26 C17         6.3576   -1.8843   -8.8494 C.1       1 <0>        -0.1145
     27 C18         7.0498   -2.4770   -9.5896 C.1       1 <0>        -0.1093
     28 C19         7.8941   -3.2000  -10.4924 C.ar      1 <0>         0.0124
     29 C20         7.4807   -4.4324  -11.0060 C.ar      1 <0>        -0.0928
     30 C21         8.2992   -5.1229  -11.8749 C.ar      1 <0>        -0.1190
     31 C22         9.5272   -4.5985  -12.2386 C.ar      1 <0>        -0.1098
     32 C23         9.9435   -3.3791  -11.7338 C.ar      1 <0>        -0.1200
     33 C24         9.1331   -2.6741  -10.8688 C.ar      1 <0>        -0.0940
     34 H2          0.9122    1.8585    0.0033 H         1 <0>         0.0959
     35 H3         -0.9582    1.8330    0.0166 H         1 <0>         0.0924
     36 H4          0.9446   -0.5313   -0.0098 H         1 <0>         0.1142
     37 H5         -1.3737   -1.3393    0.9394 H         1 <0>         0.1066
     38 H6         -2.1295   -0.0812   -0.0676 H         1 <0>         0.0785
     39 H7         -3.1214   -0.3649   -3.6521 H         1 <0>         0.1214
     40 H8         -2.8807    0.3531   -2.0413 H         1 <0>         0.1021
     41 H9         -2.4708    2.0570   -4.6823 H         1 <0>         0.1285
     42 H10        -1.8112    2.8240   -3.1952 H         1 <0>         0.1216
     43 H11         1.5360   -0.3925   -5.2559 H         1 <0>         0.4125
     44 H12         2.5121   -1.4097   -6.4208 H         1 <0>         0.1351
     45 H13         3.9529   -2.6450   -7.9634 H         1 <0>         0.1370
     46 H14         6.8848    0.4840   -7.7272 H         1 <0>         0.1355
     47 H15         5.4378    1.7224   -6.1929 H         1 <0>         0.1437
     48 H16         6.5228   -4.8431  -10.7228 H         1 <0>         0.1288
     49 H17         7.9813   -6.0755  -12.2723 H         1 <0>         0.1292
     50 H18        10.1639   -5.1438  -12.9194 H         1 <0>         0.1260
     51 H19        10.9032   -2.9762  -12.0218 H         1 <0>         0.1284
     52 H20         9.4570   -1.7201  -10.4797 H         1 <0>         0.1275
@<TRIPOS>BOND
     1    1    2 2
     2    1   34 1
     3    1   35 1
     4    2    3 1
     5    2   36 1
     6    3   37 1
     7    3   38 1
     8    3    4 1
     9    4    8 1
    10    4    5 1
    11    5   10 1
    12    5    6 2
    13    6    7 1
    14    7    8 2
    15    8    9 1
    16   10   11 1
    17   10   39 1
    18   10   40 1
    19   11   16 1
    20   11   12 2
    21   12   13 1
    22   13   14 1
    23   13   15 1
    24   13   17 1
    25   15   16 1
    26   16   41 1
    27   16   42 1
    28   17   18 am
    29   17   43 1
    30   18   19 2
    31   18   20 1
    32   20   25 ar
    33   20   21 ar
    34   21   22 ar
    35   21   44 1
    36   22   23 ar
    37   22   45 1
    38   23   24 ar
    39   23   26 1
    40   24   25 ar
    41   24   46 1
    42   25   47 1
    43   26   27 3
    44   27   28 1
    45   28   33 ar
    46   28   29 ar
    47   29   30 ar
    48   29   48 1
    49   30   31 ar
    50   30   49 1
    51   31   32 ar
    52   31   50 1
    53   32   33 ar
    54   32   51 1
    55   33   52 1
@<TRIPOS>MOLECULE
ZINC40084479
   53    55     0     0     0
SMALL
USER_CHARGES

@<TRIPOS>ATOM
      1 C1         -2.1159    1.5323    2.7801 C.3       1 <0>        -0.1100
      2 C2         -0.8706    2.3648    2.6158 C.ar      1 <0>        -0.0017
      3 C3         -0.9022    3.7139    2.8886 C.ar      1 <0>        -0.1546
      4 C4          0.2460    4.4829    2.7369 C.ar      1 <0>         0.1262
      5 C5          1.4310    3.8935    2.3096 C.ar      1 <0>        -0.2170
      6 C6          1.4713    2.5455    2.0347 C.ar      1 <0>        -0.0495
      7 C7          0.3200    1.7672    2.1915 C.ar      1 <0>        -0.1126
      8 C8          0.3602    0.3199    1.9041 C.2       1 <0>         0.4778
      9 O1          0.3692   -0.0716    0.7519 O.2       1 <0>        -0.5163
     10 C9          0.3894   -0.6461    3.0070 C.2       1 <0>        -0.4815
     11 C10         0.4909   -0.3620    4.3262 C.2       1 <0>         0.2881
     12 C11         0.4841   -1.6233    5.0965 C.2       1 <0>         0.5151
     13 O2          0.5612   -1.7018    6.3065 O.2       1 <0>        -0.5401
     14 N1          0.3796   -2.6717    4.2598 N.am      1 <0>        -0.6038
     15 C12         0.3053   -2.1500    2.8900 C.3       1 <0>         0.2586
     16 H1         -0.6388   -2.4378    2.4276 H         1 <0>         0.0942
     17 C13         1.4618   -2.6720    2.0768 C.ar      1 <0>        -0.0490
     18 C14         2.7344   -2.6943    2.6186 C.ar      1 <0>        -0.0151
     19 C15         3.7957   -3.1735    1.8715 C.ar      1 <0>        -0.1185
     20 C16         3.5847   -3.6295    0.5839 C.ar      1 <0>        -0.1088
     21 C17         2.3134   -3.6075    0.0420 C.ar      1 <0>        -0.1159
     22 C18         1.2502   -3.1342    0.7903 C.ar      1 <0>         0.0019
     23 Cl1        -0.3478   -3.1138    0.1123 Cl        1 <0>        -0.0491
     24 Cl2         2.9998   -2.1205    4.2355 Cl        1 <0>        -0.0437
     25 C19         0.3407   -4.0839    4.6478 C.3       1 <0>         0.1389
     26 C20        -1.1106   -4.5095    4.8790 C.3       1 <0>         0.0594
     27 O3         -1.8306   -4.4360    3.6469 O.3       1 <0>        -0.5609
     28 O4          0.5842    0.8795    4.8559 O.3       1 <0>        -0.6138
     29 O5          0.2103    5.8125    3.0060 O.3       1 <0>        -0.3143
     30 C21         1.4347    6.5359    2.8657 C.3       1 <0>         0.0754
     31 C22         1.6282    6.9315    1.4005 C.3       1 <0>        -0.1787
     32 C23         1.3846    7.7961    3.7319 C.3       1 <0>        -0.1465
     33 H2         -2.1150    1.0678    3.7662 H         1 <0>         0.0787
     34 H3         -2.9947    2.1693    2.6794 H         1 <0>         0.0580
     35 H4         -2.1389    0.7577    2.0136 H         1 <0>         0.0661
     36 H5         -1.8204    4.1755    3.2207 H         1 <0>         0.1223
     37 H6          2.3207    4.4945    2.1930 H         1 <0>         0.1210
     38 H7          2.3918    2.0886    1.7026 H         1 <0>         0.1151
     39 H8          4.7894   -3.1910    2.2945 H         1 <0>         0.1311
     40 H9          4.4137   -4.0028    0.0009 H         1 <0>         0.1330
     41 H10         2.1492   -3.9636   -0.9643 H         1 <0>         0.1323
     42 H11         0.7752   -4.6910    3.8537 H         1 <0>         0.0773
     43 H12         0.9112   -4.2243    5.5660 H         1 <0>         0.0908
     44 H13        -1.1339   -5.5330    5.2530 H         1 <0>         0.0496
     45 H14        -1.5721   -3.8451    5.6097 H         1 <0>         0.0492
     46 H15        -2.7602   -4.6925    3.7186 H         1 <0>         0.3725
     47 H16         2.2664    5.9080    3.1854 H         1 <0>         0.0733
     48 H17         0.7965    7.5594    1.0807 H         1 <0>         0.0638
     49 H18         2.5621    7.4833    1.2934 H         1 <0>         0.0667
     50 H19         1.6639    6.0338    0.7833 H         1 <0>         0.0648
     51 H20         1.2467    7.5142    4.7758 H         1 <0>         0.0643
     52 H21         2.3185    8.3479    3.6249 H         1 <0>         0.0723
     53 H22         0.5529    8.4239    3.4122 H         1 <0>         0.0637
@<TRIPOS>BOND
     1    1    2 1
     2    1   33 1
     3    1   34 1
     4    1   35 1
     5    2    7 ar
     6    2    3 ar
     7    3    4 ar
     8    3   36 1
     9    4    5 ar
    10    4   29 1
    11    5    6 ar
    12    5   37 1
    13    6    7 ar
    14    6   38 1
    15    7    8 1
    16    8    9 2
    17    8   10 1
    18   10   15 1
    19   10   11 2
    20   11   12 1
    21   11   28 1
    22   12   13 2
    23   12   14 am
    24   14   15 1
    25   14   25 1
    26   15   16 1
    27   15   17 1
    28   17   22 ar
    29   17   18 ar
    30   18   19 ar
    31   18   24 1
    32   19   20 ar
    33   19   39 1
    34   20   21 ar
    35   20   40 1
    36   21   22 ar
    37   21   41 1
    38   22   23 1
    39   25   26 1
    40   25   42 1
    41   25   43 1
    42   26   27 1
    43   26   44 1
    44   26   45 1
    45   27   46 1
    46   29   30 1
    47   30   31 1
    48   30   32 1
    49   30   47 1
    50   31   48 1
    51   31   49 1
    52   31   50 1
    53   32   51 1
    54   32   52 1
    55   32   53 1
@<TRIPOS>MOLECULE
ZINC40117579
   37    39     0     0     0
SMALL
USER_CHARGES

@<TRIPOS>ATOM
      1 C1         -0.0917    1.3038   -0.9407 C.3       1 <0>         0.0269
      2 O1         -0.0083   -0.0927   -0.6495 O.3       1 <0>        -0.2991
      3 C2          0.7947   -0.8430   -1.4493 C.ar      1 <0>         0.1495
      4 C3          1.5625   -0.2332   -2.4310 C.ar      1 <0>        -0.2040
      5 C4          2.3778   -0.9974   -3.2428 C.ar      1 <0>        -0.0606
      6 C5          2.4291   -2.3702   -3.0776 C.ar      1 <0>        -0.1239
      7 C6          1.6641   -2.9801   -2.0998 C.ar      1 <0>        -0.0384
      8 C7          0.8520   -2.2187   -1.2816 C.ar      1 <0>        -0.0969
      9 C8          0.0242   -2.8829   -0.2117 C.3       1 <0>         0.2715
     10 H1         -0.9080   -2.3370   -0.0666 H         1 <0>         0.0811
     11 C9          0.7994   -2.9407    1.0839 C.2       1 <0>        -0.5036
     12 C10         0.9342   -4.2498    1.4003 C.2       1 <0>         0.2631
     13 C11         0.2762   -5.0706    0.3617 C.2       1 <0>         0.5125
     14 O2          0.2242   -6.2844    0.3615 O.2       1 <0>        -0.5354
     15 N1         -0.2585   -4.2742   -0.5835 N.am      1 <0>        -0.7274
     16 O3          1.5703   -4.7307    2.4931 O.3       1 <0>        -0.6515
     17 C12         1.3075   -1.7991    1.8503 C.2       1 <0>         0.5074
     18 O4          2.5067   -1.6224    1.9557 O.2       1 <0>        -0.4712
     19 C13         0.3631   -0.8626    2.4952 C.ar      1 <0>        -0.1081
     20 C14        -1.0121   -1.0996    2.4328 C.ar      1 <0>        -0.0509
     21 C15        -1.8879   -0.2222    3.0363 C.ar      1 <0>        -0.1076
     22 C16        -1.4067    0.8922    3.7034 C.ar      1 <0>        -0.0779
     23 C17        -0.0442    1.1330    3.7685 C.ar      1 <0>        -0.1083
     24 C18         0.8423    0.2600    3.1745 C.ar      1 <0>        -0.0727
     25 Br1        -2.6150    2.0903    4.5284 Br        1 <0>        -0.0652
     26 Br2         3.5462   -3.4140   -4.1904 Br        1 <0>        -0.0617
     27 H2          0.8821    1.7669   -0.7815 H         1 <0>         0.0539
     28 H3         -0.3938    1.4410   -1.9790 H         1 <0>         0.0536
     29 H4         -0.8269    1.7686   -0.2839 H         1 <0>         0.0987
     30 H5          1.5224    0.8383   -2.5605 H         1 <0>         0.1335
     31 H6          2.9753   -0.5232   -4.0073 H         1 <0>         0.1299
     32 H7          1.7054   -4.0518   -1.9727 H         1 <0>         0.1364
     33 H8         -0.7441   -4.5674   -1.3703 H         1 <0>         0.4071
     34 H9         -1.3886   -1.9680    1.9126 H         1 <0>         0.1418
     35 H10        -2.9514   -0.4041    2.9885 H         1 <0>         0.1314
     36 H11         0.3247    2.0041    4.2896 H         1 <0>         0.1299
     37 H12         1.9047    0.4462    3.2300 H         1 <0>         0.1360
@<TRIPOS>BOND
     1    1    2 1
     2    1   27 1
     3    1   28 1
     4    1   29 1
     5    2    3 1
     6    3    8 ar
     7    3    4 ar
     8    4    5 ar
     9    4   30 1
    10    5    6 ar
    11    5   31 1
    12    6    7 ar
    13    6   26 1
    14    7    8 ar
    15    7   32 1
    16    8    9 1
    17    9   10 1
    18    9   15 1
    19    9   11 1
    20   11   12 2
    21   11   17 1
    22   12   13 1
    23   12   16 1
    24   13   14 2
    25   13   15 am
    26   15   33 1
    27   17   18 2
    28   17   19 1
    29   19   24 ar
    30   19   20 ar
    31   20   21 ar
    32   20   34 1
    33   21   22 ar
    34   21   35 1
    35   22   23 ar
    36   22   25 1
    37   23   24 ar
    38   23   36 1
    39   24   37 1
@<TRIPOS>MOLECULE
ZINC60208060
   56    58     0     0     0
SMALL
USER_CHARGES

@<TRIPOS>ATOM
      1 C1         -0.0187    1.5258    0.0104 C.3       1 <0>        -0.1428
      2 C2          0.0021   -0.0041    0.0020 C.3       1 <0>        -0.0360
      3 C3          0.7421   -0.5109    1.2415 C.3       1 <0>        -0.1429
      4 C4         -1.4333   -0.5336    0.0129 C.3       1 <0>         0.1282
      5 N1         -2.1190   -0.0612    1.2182 N.am      1 <0>        -0.7267
      6 C5         -3.4027   -0.4055    1.4419 C.2       1 <0>         0.5632
      7 O1         -3.9914   -1.1078    0.6438 O.2       1 <0>        -0.5313
      8 C6         -4.0957    0.0720    2.6601 C.ar      1 <0>        -0.0917
      9 C7         -3.4142    0.8860    3.5736 C.ar      1 <0>        -0.1584
     10 C8         -4.0365    1.3365    4.7023 C.ar      1 <0>        -0.0285
     11 C9         -5.3628    0.9853    4.9516 C.ar      1 <0>        -0.2235
     12 C10        -6.0648    0.1648    4.0401 C.ar      1 <0>         0.2004
     13 C11        -5.4185   -0.2858    2.8855 C.ar      1 <0>        -0.0689
     14 N2         -7.3516   -0.1634    4.3034 N.2       1 <0>        -0.5596
     15 C12        -7.9606    0.2616    5.3828 C.2       1 <0>         0.5337
     16 S1         -9.6363   -0.2158    5.6449 S.3       1 <0>        -0.7581
     17 N3         -7.3570    1.0569    6.3144 N.am      1 <0>        -0.5353
     18 C13        -6.0716    1.4480    6.1553 C.2       1 <0>         0.5487
     19 O2         -5.5214    2.1564    6.9779 O.2       1 <0>        -0.5371
     20 C14        -8.1075    1.4906    7.4954 C.3       1 <0>         0.1044
     21 C15        -7.9243    0.4691    8.6196 C.3       1 <0>        -0.1250
     22 C16        -8.7081    0.9221    9.8530 C.3       1 <0>         0.0718
     23 O3         -8.5369   -0.0320   10.9030 O.3       1 <0>        -0.3915
     24 C17        -9.2319    0.2980   12.1072 C.3       1 <0>         0.0327
     25 C18         0.7074   -0.4901   -1.2379 C.ar      1 <0>        -0.0534
     26 C19         0.0358   -1.2845   -2.1487 C.ar      1 <0>        -0.1161
     27 C20         0.6821   -1.7306   -3.2861 C.ar      1 <0>        -0.1014
     28 C21         2.0006   -1.3831   -3.5134 C.ar      1 <0>        -0.1157
     29 C22         2.6731   -0.5884   -2.6026 C.ar      1 <0>        -0.0323
     30 C23         2.0237   -0.1370   -1.4671 C.ar      1 <0>        -0.1038
     31 Cl1         4.3289   -0.1515   -2.8875 Cl        1 <0>        -0.0730
     32 H1          1.0039    1.9031    0.0027 H         1 <0>         0.0627
     33 H2         -0.5459    1.8868   -0.8726 H         1 <0>         0.0628
     34 H3         -0.5289    1.8773    0.9072 H         1 <0>         0.0638
     35 H4          0.2319   -0.1594    2.1383 H         1 <0>         0.0638
     36 H5          0.7568   -1.6008    1.2356 H         1 <0>         0.0628
     37 H6          1.7647   -0.1336    1.2338 H         1 <0>         0.0627
     38 H7         -1.9605   -0.1726   -0.8702 H         1 <0>         0.0737
     39 H8         -1.4185   -1.6235    0.0069 H         1 <0>         0.0737
     40 H9         -1.6491    0.4994    1.8553 H         1 <0>         0.4007
     41 H10        -2.3868    1.1595    3.3837 H         1 <0>         0.1199
     42 H11        -3.5024    1.9634    5.4010 H         1 <0>         0.1316
     43 H12        -5.9421   -0.9102    2.1767 H         1 <0>         0.1450
     44 H13        -7.7385    2.4623    7.8237 H         1 <0>         0.0809
     45 H14        -9.1654    1.5694    7.2449 H         1 <0>         0.1172
     46 H15        -8.2932   -0.5026    8.2913 H         1 <0>         0.0861
     47 H16        -6.8664    0.3903    8.8701 H         1 <0>         0.0641
     48 H17        -8.3391    1.8938   10.1814 H         1 <0>         0.0467
     49 H18        -9.7660    1.0009    9.6026 H         1 <0>         0.0559
     50 H19       -10.3007    0.3639   11.9035 H         1 <0>         0.0406
     51 H20        -9.0514   -0.4748   12.8544 H         1 <0>         0.0821
     52 H21        -8.8738    1.2568   12.4823 H         1 <0>         0.0379
     53 H22        -0.9941   -1.5568   -1.9711 H         1 <0>         0.1364
     54 H23         0.1570   -2.3511   -3.9971 H         1 <0>         0.1336
     55 H24         2.5057   -1.7324   -4.4019 H         1 <0>         0.1318
     56 H25         2.5468    0.4872   -0.7578 H         1 <0>         0.1331
@<TRIPOS>BOND
     1    1    2 1
     2    1   32 1
     3    1   33 1
     4    1   34 1
     5    2    3 1
     6    2    4 1
     7    2   25 1
     8    3   35 1
     9    3   36 1
    10    3   37 1
    11    4    5 1
    12    4   38 1
    13    4   39 1
    14    5    6 am
    15    5   40 1
    16    6    7 2
    17    6    8 1
    18    8   13 ar
    19    8    9 ar
    20    9   10 ar
    21    9   41 1
    22   10   11 ar
    23   10   42 1
    24   11   18 1
    25   11   12 ar
    26   12   13 ar
    27   12   14 1
    28   13   43 1
    29   14   15 2
    30   15   16 1
    31   15   17 1
    32   17   18 am
    33   17   20 1
    34   18   19 2
    35   20   21 1
    36   20   44 1
    37   20   45 1
    38   21   22 1
    39   21   46 1
    40   21   47 1
    41   22   23 1
    42   22   48 1
    43   22   49 1
    44   23   24 1
    45   24   50 1
    46   24   51 1
    47   24   52 1
    48   25   30 ar
    49   25   26 ar
    50   26   27 ar
    51   26   53 1
    52   27   28 ar
    53   27   54 1
    54   28   29 ar
    55   28   55 1
    56   29   30 ar
    57   29   31 1
    58   30   56 1
@<TRIPOS>MOLECULE
ZINC13258172
   50    52     0     0     0
SMALL
USER_CHARGES
(3S)-3-[[(E)-3-(6-chloro-3,4-dihydro-2H-1,5-benzodioxepin-8-yl)prop-2-enoyl]amino]-3-(p-tolyl)propanoic acid
@<TRIPOS>ATOM
      1 C1          3.9690    9.8183  -12.0244 C.3       1 <0>        -0.1090
      2 C2          3.6524    9.7868  -10.5514 C.ar      1 <0>        -0.0958
      3 C3          2.8536   10.7682   -9.9950 C.ar      1 <0>        -0.1272
      4 C4          2.5636   10.7396   -8.6437 C.ar      1 <0>        -0.0582
      5 C5          3.0724    9.7296   -7.8488 C.ar      1 <0>        -0.0789
      6 C6          3.8755    8.7511   -8.4042 C.ar      1 <0>        -0.1184
      7 C7          4.1612    8.7768   -9.7565 C.ar      1 <0>        -0.1308
      8 C8          2.7565    9.6987   -6.3756 C.3       1 <0>         0.2009
      9 H1          1.8680   10.2996   -6.1818 H         1 <0>         0.1016
     10 C9          3.9387   10.2677   -5.5885 C.3       1 <0>        -0.1622
     11 C10         4.0892   11.7348   -5.8988 C.2       1 <0>         0.4688
     12 O1          3.2607   12.2974   -6.5747 O.co2     1 <0>        -0.6334
     13 N1          2.5118    8.3161   -5.9576 N.am      1 <0>        -0.7165
     14 C11         1.7605    8.0647   -4.8673 C.2       1 <0>         0.5388
     15 O2          1.3616    8.9850   -4.1776 O.2       1 <0>        -0.5347
     16 C12         1.4244    6.6862   -4.5127 C.2       1 <0>        -0.1831
     17 C13         0.6719    6.4344   -3.4207 C.2       1 <0>        -0.0385
     18 C14         0.3342    5.0488   -3.0643 C.ar      1 <0>        -0.0402
     19 C15        -0.4466    4.7859   -1.9315 C.ar      1 <0>        -0.0912
     20 C16        -0.7577    3.4815   -1.6058 C.ar      1 <0>         0.0786
     21 C17        -0.2995    2.4334   -2.3966 C.ar      1 <0>         0.0777
     22 C18         0.4750    2.6897   -3.5204 C.ar      1 <0>        -0.0341
     23 C19         0.7922    3.9898   -3.8558 C.ar      1 <0>        -0.0925
     24 Cl1         1.0433    1.3756   -4.5023 Cl        1 <0>        -0.0461
     25 O3         -0.6162    1.1500   -2.0616 O.3       1 <0>        -0.3076
     26 C20        -0.0158    0.6498   -0.8654 C.3       1 <0>         0.0590
     27 C21        -0.8313    1.0486    0.3546 C.3       1 <0>        -0.1880
     28 C22        -0.8492    2.5536    0.5719 C.3       1 <0>         0.0577
     29 O4         -1.5187    3.2123   -0.5050 O.3       1 <0>        -0.3132
     30 H2          4.8788   10.3958  -12.1883 H         1 <0>         0.0661
     31 H3          4.1145    8.8006  -12.3866 H         1 <0>         0.0604
     32 H4          3.1427   10.2812  -12.5638 H         1 <0>         0.0619
     33 H5          2.4564   11.5576  -10.6160 H         1 <0>         0.1176
     34 H6          1.9398   11.5066   -8.2090 H         1 <0>         0.1384
     35 H7          4.2766    7.9645   -7.7824 H         1 <0>         0.1134
     36 H8          4.7856    8.0102  -10.1911 H         1 <0>         0.1150
     37 H9          3.7604   10.1385   -4.5210 H         1 <0>         0.0735
     38 H10         4.8504    9.7413   -5.8710 H         1 <0>         0.0637
     39 H11         2.8904    7.5816   -6.4655 H         1 <0>         0.3952
     40 H12         1.7783    5.8696   -5.1246 H         1 <0>         0.1292
     41 H13         0.3181    7.2510   -2.8088 H         1 <0>         0.1449
     42 H14        -0.8031    5.5991   -1.3168 H         1 <0>         0.1491
     43 H15         1.3944    4.1902   -4.7296 H         1 <0>         0.1486
     44 H16         0.0402   -0.4374   -0.9196 H         1 <0>         0.1073
     45 H17         0.9911    1.0566   -0.7723 H         1 <0>         0.0593
     46 H18        -1.8551    0.6976    0.2251 H         1 <0>         0.0855
     47 H19        -0.4048    0.5702    1.2362 H         1 <0>         0.0926
     48 H20         0.1755    2.9198    0.6348 H         1 <0>         0.0605
     49 H21        -1.3671    2.7746    1.5051 H         1 <0>         0.1079
     50 O5          5.1436   12.4164   -5.4241 O.co2     1 <0>        -0.7738
@<TRIPOS>BOND
     1    1    2 1
     2    1   30 1
     3    1   31 1
     4    1   32 1
     5    2    7 ar
     6    2    3 ar
     7    3    4 ar
     8    3   33 1
     9    4    5 ar
    10    4   34 1
    11    5    6 ar
    12    5    8 1
    13    6    7 ar
    14    6   35 1
    15    7   36 1
    16    8    9 1
    17    8   10 1
    18    8   13 1
    19   10   11 1
    20   10   37 1
    21   10   38 1
    22   11   12 2
    23   11   50 1
    24   13   14 am
    25   13   39 1
    26   14   15 2
    27   14   16 1
    28   16   17 2
    29   16   40 1
    30   17   18 1
    31   17   41 1
    32   18   23 ar
    33   18   19 ar
    34   19   20 ar
    35   19   42 1
    36   20   29 1
    37   20   21 ar
    38   21   22 ar
    39   21   25 1
    40   22   23 ar
    41   22   24 1
    42   23   43 1
    43   25   26 1
    44   26   27 1
    45   26   44 1
    46   26   45 1
    47   27   28 1
    48   27   46 1
    49   27   47 1
    50   28   29 1
    51   28   48 1
    52   28   49 1
@<TRIPOS>MOLECULE
ZINC27300649
   50    52     0     0     0
SMALL
USER_CHARGES
2-[(5-oxo-6-styryl-4H-1,2,4-triazin-3-yl)sulfanyl]-N-(2,4,6-trimethylphenyl)acetamide
@<TRIPOS>ATOM
      1 C1          6.0807   -0.8828    0.2444 C.3       1 <0>        -0.1138
      2 C2          4.7713   -0.1375    0.2116 C.ar      1 <0>        -0.0886
      3 C3          4.7581    1.2235   -0.0332 C.ar      1 <0>        -0.1190
      4 C4          3.5598    1.9095   -0.0639 C.ar      1 <0>        -0.0901
      5 C5          2.3673    1.2310    0.1509 C.ar      1 <0>         0.1388
      6 C6          2.3844   -0.1348    0.4018 C.ar      1 <0>        -0.0623
      7 C7          3.5856   -0.8159    0.4260 C.ar      1 <0>        -0.1169
      8 C8          1.0932   -0.8738    0.6421 C.3       1 <0>        -0.1472
      9 N1          1.1516    1.9231    0.1204 N.am      1 <0>        -0.6817
     10 C9          0.1452    1.4833   -0.6607 C.2       1 <0>         0.5301
     11 O1          0.3146    0.5265   -1.3867 O.2       1 <0>        -0.5017
     12 C10        -1.1887    2.1841   -0.6369 C.3       1 <0>        -0.1468
     13 S1         -2.3195    1.3685   -1.7911 S.3       1 <0>         0.0477
     14 C11        -3.7565    2.3630   -1.5658 C.ar      1 <0>         0.2693
     15 N2         -4.8826    2.0812   -2.2809 N.ar      1 <0>        -0.6151
     16 C12        -5.9800    2.8518   -2.0920 C.ar      1 <0>         0.4838
     17 O2         -7.0132    2.6406   -2.7021 O.3       1 <0>        -0.5747
     18 C13        -5.8760    3.9563   -1.1282 C.ar      1 <0>        -0.0981
     19 N3         -4.7254    4.1377   -0.4940 N.ar      1 <0>        -0.1804
     20 N4         -3.7193    3.3701   -0.7112 N.ar      1 <0>        -0.4208
     21 C14        -7.0211    4.8395   -0.8725 C.2       1 <0>        -0.0267
     22 C15        -6.9098    5.8464    0.0137 C.2       1 <0>        -0.1476
     23 C16        -8.0582    6.7320    0.2701 C.ar      1 <0>        -0.0277
     24 C17        -9.2638    6.5336   -0.4092 C.ar      1 <0>        -0.1243
     25 C18       -10.3365    7.3635   -0.1595 C.ar      1 <0>        -0.1166
     26 C19       -10.2181    8.3978    0.7525 C.ar      1 <0>        -0.1380
     27 C20        -9.0261    8.6040    1.4246 C.ar      1 <0>        -0.1201
     28 C21        -7.9463    7.7789    1.1899 C.ar      1 <0>        -0.1193
     29 C22         3.5464    3.3928   -0.3298 C.3       1 <0>        -0.1158
     30 H1          6.9066   -0.1816    0.0538 H         1 <0>         0.0634
     31 H2          6.0772   -1.6643   -0.5297 H         1 <0>         0.0683
     32 H3          6.2140   -1.3464    1.2330 H         1 <0>         0.0676
     33 H4          5.6858    1.7505   -0.2002 H         1 <0>         0.1221
     34 H5          3.5992   -1.8788    0.6169 H         1 <0>         0.1219
     35 H6          1.3076   -1.9377    0.8214 H         1 <0>         0.0588
     36 H7          0.4440   -0.7742   -0.2403 H         1 <0>         0.1145
     37 H8          0.5856   -0.4489    1.5206 H         1 <0>         0.0623
     38 H9          1.0173    2.8262    0.7339 H         1 <0>         0.4341
     39 H10        -1.6076    2.1406    0.3793 H         1 <0>         0.1243
     40 H11        -1.0562    3.2348   -0.9342 H         1 <0>         0.1240
     41 H12        -7.9698    4.6781   -1.4053 H         1 <0>         0.1256
     42 H13        -5.9611    6.0078    0.5465 H         1 <0>         0.1296
     43 H14        -9.3561    5.7299   -1.1247 H         1 <0>         0.1264
     44 H15       -11.2700    7.2085   -0.6799 H         1 <0>         0.1185
     45 H16       -11.0604    9.0470    0.9408 H         1 <0>         0.1154
     46 H17        -8.9411    9.4134    2.1346 H         1 <0>         0.1174
     47 H18        -7.0168    7.9409    1.7154 H         1 <0>         0.1220
     48 H19         2.5091    3.7585   -0.3153 H         1 <0>         0.0665
     49 H20         3.9919    3.5926   -1.3155 H         1 <0>         0.0710
     50 H21         4.1284    3.9099    0.4473 H         1 <0>         0.0699
@<TRIPOS>BOND
     1    1    2 1
     2    1   30 1
     3    1   31 1
     4    1   32 1
     5    2    7 ar
     6    2    3 ar
     7    3    4 ar
     8    3   33 1
     9    4    5 ar
    10    4   29 1
    11    5    6 ar
    12    5    9 1
    13    6    7 ar
    14    6    8 1
    15    7   34 1
    16    8   35 1
    17    8   36 1
    18    8   37 1
    19    9   10 am
    20    9   38 1
    21   10   11 2
    22   10   12 1
    23   12   13 1
    24   12   39 1
    25   12   40 1
    26   13   14 1
    27   14   20 ar
    28   14   15 ar
    29   15   16 ar
    30   16   17 1
    31   16   18 ar
    32   18   19 ar
    33   18   21 1
    34   19   20 ar
    35   21   22 2
    36   21   41 1
    37   22   23 1
    38   22   42 1
    39   23   28 ar
    40   23   24 ar
    41   24   25 ar
    42   24   43 1
    43   25   26 ar
    44   25   44 1
    45   26   27 ar
    46   26   45 1
    47   27   28 ar
    48   27   46 1
    49   28   47 1
    50   29   48 1
    51   29   49 1
    52   29   50 1
@<TRIPOS>MOLECULE
ZINC40095321
   48    51     0     0     0
SMALL
USER_CHARGES

@<TRIPOS>ATOM
      1 C1         -0.2439   -1.8049   -3.9215 C.3       1 <0>        -0.1482
      2 C2         -0.8639   -2.9723   -3.1509 C.3       1 <0>         0.0750
      3 H1         -1.4145   -3.6287   -3.8247 H         1 <0>         0.0855
      4 C3         -1.7819   -2.4551   -2.0182 C.3       1 <0>        -0.1024
      5 C4         -1.5337   -3.4756   -0.9239 C.ar      1 <0>        -0.1929
      6 C5         -2.2160   -3.7714    0.2298 C.ar      1 <0>        -0.0233
      7 C6         -1.7547   -4.7905    1.0700 C.ar      1 <0>        -0.1642
      8 C7         -0.5996   -5.4980    0.7227 C.ar      1 <0>        -0.0299
      9 C8          0.0778   -5.1911   -0.4330 C.ar      1 <0>        -0.1520
     10 C9         -0.3790   -4.1719   -1.2712 C.ar      1 <0>         0.1173
     11 O1          0.1464   -3.7058   -2.4384 O.3       1 <0>        -0.3035
     12 C10        -2.4812   -5.1159    2.3131 C.2       1 <0>         0.5091
     13 O2         -3.4445   -4.4512    2.6467 O.2       1 <0>        -0.4752
     14 C11        -2.0421   -6.2401    3.1460 C.2       1 <0>        -0.5020
     15 C12        -2.7157   -7.3929    3.3661 C.2       1 <0>         0.2630
     16 C13        -1.9204   -8.2562    4.2642 C.2       1 <0>         0.5109
     17 O3         -2.2559   -9.3587    4.6489 O.2       1 <0>        -0.5378
     18 N1         -0.7701   -7.6407    4.5928 N.am      1 <0>        -0.6059
     19 C14        -0.7474   -6.3372    3.9187 C.3       1 <0>         0.2641
     20 H2          0.1012   -6.2800    3.2369 H         1 <0>         0.0837
     21 C15        -0.6686   -5.2311    4.9391 C.ar      1 <0>        -0.0471
     22 C16        -1.2999   -5.3719    6.1609 C.ar      1 <0>        -0.0942
     23 C17        -1.2276   -4.3578    7.0973 C.ar      1 <0>        -0.0905
     24 C18        -0.5234   -3.2019    6.8117 C.ar      1 <0>        -0.0989
     25 C19         0.1081   -3.0615    5.5891 C.ar      1 <0>        -0.0901
     26 C20         0.0396   -4.0783    4.6553 C.ar      1 <0>        -0.1080
     27 Br1        -0.4247   -1.8139    8.0922 Br        1 <0>        -0.0695
     28 C21         0.2771   -8.1788    5.4646 C.3       1 <0>         0.1350
     29 C22         1.2877   -8.9620    4.6243 C.3       1 <0>         0.0591
     30 O4          1.9595   -8.0695    3.7330 O.3       1 <0>        -0.5651
     31 O5         -3.9253   -7.7055    2.8465 O.3       1 <0>        -0.6548
     32 H3          0.4320   -2.1913   -4.6843 H         1 <0>         0.0667
     33 H4         -1.0336   -1.2231   -4.3968 H         1 <0>         0.0773
     34 H5          0.3115   -1.1688   -3.2324 H         1 <0>         0.0665
     35 H6         -1.4804   -1.4581   -1.6969 H         1 <0>         0.0888
     36 H7         -2.8266   -2.4634   -2.3290 H         1 <0>         0.0895
     37 H8         -3.1068   -3.2183    0.4886 H         1 <0>         0.1311
     38 H9         -0.2385   -6.2877    1.3649 H         1 <0>         0.1449
     39 H10         0.9692   -5.7418   -0.6947 H         1 <0>         0.1285
     40 H11        -1.8500   -6.2742    6.3836 H         1 <0>         0.1258
     41 H12        -1.7211   -4.4677    8.0516 H         1 <0>         0.1269
     42 H13         0.6580   -2.1593    5.3657 H         1 <0>         0.1273
     43 H14         0.5361   -3.9705    3.7023 H         1 <0>         0.1290
     44 H15         0.7847   -7.3584    5.9719 H         1 <0>         0.0824
     45 H16        -0.1713   -8.8417    6.2046 H         1 <0>         0.0923
     46 H17         2.0167   -9.4362    5.2814 H         1 <0>         0.0511
     47 H18         0.7664   -9.7266    4.0483 H         1 <0>         0.0504
     48 H19         2.6165   -8.4986    3.1679 H         1 <0>         0.3741
@<TRIPOS>BOND
     1    1    2 1
     2    1   32 1
     3    1   33 1
     4    1   34 1
     5    2    3 1
     6    2   11 1
     7    2    4 1
     8    4    5 1
     9    4   35 1
    10    4   36 1
    11    5   10 ar
    12    5    6 ar
    13    6    7 ar
    14    6   37 1
    15    7    8 ar
    16    7   12 1
    17    8    9 ar
    18    8   38 1
    19    9   10 ar
    20    9   39 1
    21   10   11 1
    22   12   13 2
    23   12   14 1
    24   14   19 1
    25   14   15 2
    26   15   16 1
    27   15   31 1
    28   16   17 2
    29   16   18 am
    30   18   19 1
    31   18   28 1
    32   19   20 1
    33   19   21 1
    34   21   26 ar
    35   21   22 ar
    36   22   23 ar
    37   22   40 1
    38   23   24 ar
    39   23   41 1
    40   24   25 ar
    41   24   27 1
    42   25   26 ar
    43   25   42 1
    44   26   43 1
    45   28   29 1
    46   28   44 1
    47   28   45 1
    48   29   30 1
    49   29   46 1
    50   29   47 1
    51   30   48 1
@<TRIPOS>MOLECULE
ZINC47991952
   34    35     0     0     0
SMALL
USER_CHARGES

@<TRIPOS>ATOM
      1 C1          0.9672   -2.3886    0.2829 C.3       1 <0>        -0.6698
      2 S1          0.1539   -0.8053   -0.0668 S.o2      1 <0>         2.6113
      3 O1         -1.2065   -1.0205   -0.4162 O.2       1 <0>        -0.9689
      4 O2          0.5051    0.1541    0.9209 O.2       1 <0>        -0.9512
      5 N1          0.8663   -0.2591   -1.4584 N.pl3     1 <0>        -1.0618
      6 C2          2.2285    0.0519   -1.4704 C.ar      1 <0>         0.1680
      7 C3          2.6801    1.2215   -0.8711 C.ar      1 <0>        -0.1913
      8 C4          4.0268    1.5301   -0.8823 C.ar      1 <0>        -0.0635
      9 C5          4.9293    0.6769   -1.4895 C.ar      1 <0>        -0.0820
     10 C6          4.4836   -0.4947   -2.0908 C.ar      1 <0>         0.2913
     11 C7          3.1322   -0.8097   -2.0758 C.ar      1 <0>        -0.2539
     12 N2          5.3961   -1.3568   -2.7048 N.2       1 <0>        -1.0669
     13 S2          4.8889   -2.8225   -3.2852 S.o2      1 <0>         2.6006
     14 O3          4.4039   -3.5556   -2.1687 O.2       1 <0>        -1.0264
     15 O4          4.0859   -2.5518   -4.4259 O.2       1 <0>        -1.0234
     16 C8          6.3172   -3.6755   -3.8657 C.ar      1 <0>        -0.6121
     17 C9          6.7276   -3.5229   -5.1770 C.ar      1 <0>        -0.0102
     18 C10         7.8479   -4.1918   -5.6329 C.ar      1 <0>        -0.1365
     19 C11         8.5586   -5.0140   -4.7768 C.ar      1 <0>         0.0034
     20 C12         8.1473   -5.1663   -3.4646 C.ar      1 <0>        -0.1366
     21 C13         7.0301   -4.4925   -3.0083 C.ar      1 <0>        -0.0101
     22 Cl1         9.9655   -5.8549   -5.3490 Cl        1 <0>        -0.0732
     23 Cl2         6.6203    1.0690   -1.5016 Cl        1 <0>        -0.0825
     24 H1          0.8423   -3.0572   -0.5688 H         1 <0>         0.1295
     25 H2          2.0295   -2.2201    0.4598 H         1 <0>         0.1357
     26 H3          0.5186   -2.8398    1.1679 H         1 <0>         0.1261
     27 H4          0.3380   -0.1551   -2.2652 H         1 <0>         0.4212
     28 H5          1.9774    1.8902   -0.3962 H         1 <0>         0.1270
     29 H6          4.3751    2.4399   -0.4161 H         1 <0>         0.1247
     30 H7          2.7839   -1.7212   -2.5387 H         1 <0>         0.1122
     31 H8          6.1726   -2.8813   -5.8453 H         1 <0>         0.1467
     32 H9          8.1683   -4.0728   -6.6575 H         1 <0>         0.1380
     33 H10         8.7015   -5.8082   -2.7959 H         1 <0>         0.1379
     34 H11         6.7117   -4.6075   -1.9827 H         1 <0>         0.1467
@<TRIPOS>BOND
     1    1    2 1
     2    1   24 1
     3    1   25 1
     4    1   26 1
     5    2    3 2
     6    2    4 2
     7    2    5 1
     8    5    6 1
     9    5   27 1
    10    6   11 ar
    11    6    7 ar
    12    7    8 ar
    13    7   28 1
    14    8    9 ar
    15    8   29 1
    16    9   10 ar
    17    9   23 1
    18   10   11 ar
    19   10   12 1
    20   11   30 1
    21   12   13 1
    22   13   14 2
    23   13   15 2
    24   13   16 1
    25   16   21 ar
    26   16   17 ar
    27   17   18 ar
    28   17   31 1
    29   18   19 ar
    30   18   32 1
    31   19   20 ar
    32   19   22 1
    33   20   21 ar
    34   20   33 1
    35   21   34 1
@<TRIPOS>MOLECULE
ZINC59203012
   51    53     0     0     0
SMALL
USER_CHARGES

@<TRIPOS>ATOM
      1 C1         -0.5060   -2.2889   -0.5859 C.3       1 <0>        -0.1463
      2 C2          0.6213   -3.3170   -0.7004 C.3       1 <0>        -0.0816
      3 C3          0.0573   -4.6296   -1.1802 C.ar      1 <0>        -0.0926
      4 C4         -0.2996   -5.6035   -0.2679 C.ar      1 <0>        -0.1126
      5 C5         -0.8172   -6.8079   -0.7073 C.ar      1 <0>        -0.1226
      6 C6         -0.9798   -7.0416   -2.0607 C.ar      1 <0>        -0.1127
      7 C7         -0.6254   -6.0718   -2.9778 C.ar      1 <0>        -0.0708
      8 C8         -0.1097   -4.8590   -2.5394 C.ar      1 <0>         0.1450
      9 N1          0.2455   -3.8723   -3.4658 N.am      1 <0>        -0.6692
     10 C9         -0.5963   -3.5564   -4.4699 C.2       1 <0>         0.5331
     11 O1         -1.6878   -4.0812   -4.5339 O.2       1 <0>        -0.4990
     12 C10        -0.1811   -2.5512   -5.5131 C.3       1 <0>        -0.1432
     13 S1         -1.5199   -2.3437   -6.7194 S.3       1 <0>         0.0405
     14 C11        -0.8889   -1.1545   -7.8561 C.2       1 <0>         0.3560
     15 N2          0.3185   -0.6605   -7.6706 N.2       1 <0>        -0.5637
     16 C12         0.8330    0.2428   -8.5095 C.2       1 <0>         0.4540
     17 C13         0.0916    0.6741   -9.5969 C.2       1 <0>        -0.4518
     18 C14        -1.1903    0.1470   -9.7904 C.2       1 <0>         0.5299
     19 O2         -1.8722    0.5042  -10.7380 O.2       1 <0>        -0.5858
     20 N3         -1.6576   -0.7671   -8.9143 N.am      1 <0>        -0.4864
     21 C15        -2.9356   -1.3143   -9.0886 C.ar      1 <0>         0.1243
     22 C16        -3.0949   -2.4977   -9.7972 C.ar      1 <0>        -0.0951
     23 C17        -4.3560   -3.0347   -9.9673 C.ar      1 <0>        -0.1135
     24 C18        -5.4593   -2.3949   -9.4328 C.ar      1 <0>        -0.1140
     25 C19        -5.3039   -1.2160   -8.7270 C.ar      1 <0>        -0.1135
     26 C20        -4.0447   -0.6774   -8.5482 C.ar      1 <0>        -0.0937
     27 C21         0.6547    1.6928  -10.5541 C.3       1 <0>        -0.0281
     28 O3          2.0756    0.7356   -8.2972 O.3       1 <0>        -0.6739
     29 C22        -0.8025   -6.3274   -4.4523 C.3       1 <0>        -0.1072
     30 H1         -0.0980   -1.3395   -0.2389 H         1 <0>         0.0590
     31 H2         -0.9710   -2.1495   -1.5618 H         1 <0>         0.0562
     32 H3         -1.2519   -2.6452    0.1245 H         1 <0>         0.0555
     33 H4          1.3673   -2.9607   -1.4109 H         1 <0>         0.0685
     34 H5          1.0864   -3.4564    0.2755 H         1 <0>         0.0736
     35 H6         -0.1738   -5.4241    0.7896 H         1 <0>         0.1234
     36 H7         -1.0948   -7.5681    0.0079 H         1 <0>         0.1219
     37 H8         -1.3840   -7.9836   -2.4008 H         1 <0>         0.1240
     38 H9          1.0974   -3.4155   -3.3853 H         1 <0>         0.4123
     39 H10         0.0272   -1.5948   -5.0334 H         1 <0>         0.1284
     40 H11         0.7152   -2.9051   -6.0223 H         1 <0>         0.1284
     41 H12        -2.2336   -2.9976  -10.2152 H         1 <0>         0.1239
     42 H13        -4.4806   -3.9549  -10.5187 H         1 <0>         0.1264
     43 H14        -6.4444   -2.8167   -9.5671 H         1 <0>         0.1235
     44 H15        -6.1675   -0.7183   -8.3113 H         1 <0>         0.1262
     45 H16        -3.9234    0.2407   -7.9924 H         1 <0>         0.1235
     46 H17         1.6569    1.9775  -10.2335 H         1 <0>         0.0581
     47 H18         0.7016    1.2639  -11.5550 H         1 <0>         0.0283
     48 H19         0.0131    2.5738  -10.5659 H         1 <0>         0.0283
     49 H20        -1.8396   -6.1411   -4.7314 H         1 <0>         0.0914
     50 H21        -0.1491   -5.6626   -5.0174 H         1 <0>         0.0566
     51 H22        -0.5469   -7.3634   -4.6748 H         1 <0>         0.0571
@<TRIPOS>BOND
     1    1    2 1
     2    1   30 1
     3    1   31 1
     4    1   32 1
     5    2    3 1
     6    2   33 1
     7    2   34 1
     8    3    8 ar
     9    3    4 ar
    10    4    5 ar
    11    4   35 1
    12    5    6 ar
    13    5   36 1
    14    6    7 ar
    15    6   37 1
    16    7    8 ar
    17    7   29 1
    18    8    9 1
    19    9   10 am
    20    9   38 1
    21   10   11 2
    22   10   12 1
    23   12   39 1
    24   12   40 1
    25   12   13 1
    26   13   14 1
    27   14   15 2
    28   14   20 1
    29   15   16 1
    30   16   17 2
    31   16   28 1
    32   17   18 1
    33   17   27 1
    34   18   19 2
    35   18   20 am
    36   20   21 1
    37   21   26 ar
    38   21   22 ar
    39   22   23 ar
    40   22   41 1
    41   23   24 ar
    42   23   42 1
    43   24   25 ar
    44   24   43 1
    45   25   26 ar
    46   25   44 1
    47   26   45 1
    48   27   46 1
    49   27   47 1
    50   27   48 1
    51   29   49 1
    52   29   50 1
    53   29   51 1
@<TRIPOS>MOLECULE
ZINC02765238
   57    59     0     0     0
SMALL
USER_CHARGES
6-[(12-ethoxycarbonyl-10-thiabicyclo[7.3.0]dodeca-11,13-dien-11-yl)carbamoyl]cyclohex-3-ene-1-carboxylic acid
@<TRIPOS>ATOM
      1 C1          2.5417    6.0590   -2.4961 C.3       1 <0>        -0.1517
      2 C2          2.3819    5.4930   -1.0837 C.3       1 <0>         0.0574
      3 O1          1.9499    4.1090   -1.1629 O.3       1 <0>        -0.3527
      4 C3          1.7610    3.4588    0.0037 C.2       1 <0>         0.5397
      5 O2          1.9523    4.0338    1.0584 O.2       1 <0>        -0.4967
      6 C4          1.3255    2.0607    0.0005 C.2       1 <0>        -0.2457
      7 C5          2.2937    0.9678   -0.0150 C.2       1 <0>        -0.0399
      8 C6          1.7535   -0.2609   -0.0156 C.2       1 <0>        -0.2321
      9 S1          0.0021   -0.0041    0.0020 S.3       1 <0>         0.2574
     10 C7         -0.0214    1.7283    0.0115 C.2       1 <0>         0.1144
     11 N1         -1.1184    2.5755    0.0216 N.am      1 <0>        -0.6303
     12 C8         -2.3652    2.0637    0.0256 C.2       1 <0>         0.5222
     13 O3         -2.5273    0.8618    0.0203 O.2       1 <0>        -0.4473
     14 C9         -3.5578    2.9848    0.0366 C.3       1 <0>        -0.0765
     15 H1         -3.5333    3.6052    0.9324 H         1 <0>         0.1010
     16 C10        -3.5310    3.8759   -1.2072 C.3       1 <0>        -0.0818
     17 C11        -4.8347    4.6056   -1.3484 C.2       1 <0>        -0.1706
     18 C12        -5.9249    4.2675   -0.7380 C.2       1 <0>        -0.1368
     19 C13        -6.0350    3.1048    0.2044 C.3       1 <0>        -0.0736
     20 C14        -4.8489    2.1569    0.0125 C.3       1 <0>        -0.1113
     21 H2         -4.9390    1.6463   -0.9463 H         1 <0>         0.0770
     22 C15        -4.8231    1.1456    1.1294 C.2       1 <0>         0.4779
     23 O4         -3.8711    1.0891    1.8714 O.co2     1 <0>        -0.6282
     24 C16         2.5043   -1.5473   -0.0262 C.3       1 <0>        -0.0331
     25 C17         2.8918   -1.9932    1.4002 C.3       1 <0>        -0.1202
     26 C18         4.3111   -1.4465    1.6902 C.3       1 <0>        -0.1210
     27 C19         4.1990   -0.3669    2.7700 C.3       1 <0>        -0.1135
     28 C20         3.4357    0.8668    2.3801 C.3       1 <0>        -0.1329
     29 C21         4.1942    1.7211    1.3555 C.3       1 <0>        -0.1151
     30 C22         3.7914    1.2080   -0.0292 C.3       1 <0>        -0.0678
     31 H3          2.8660    7.0980   -2.4367 H         1 <0>         0.0779
     32 H4          3.2862    5.4765   -3.0388 H         1 <0>         0.0660
     33 H5          1.5869    6.0058   -3.0191 H         1 <0>         0.0669
     34 H6          1.6374    6.0755   -0.5410 H         1 <0>         0.0686
     35 H7          3.3367    5.5463   -0.5607 H         1 <0>         0.0683
     36 H8         -0.9887    3.5368    0.0258 H         1 <0>         0.4114
     37 H9         -2.7203    4.5987   -1.1163 H         1 <0>         0.0687
     38 H10        -3.3673    3.2585   -2.0905 H         1 <0>         0.0758
     39 H11        -4.8650    5.4667   -1.9996 H         1 <0>         0.1029
     40 H12        -6.8103    4.8592   -0.9178 H         1 <0>         0.1022
     41 H13        -6.0427    3.4712    1.2309 H         1 <0>         0.0722
     42 H14        -6.9625    2.5671    0.0079 H         1 <0>         0.0828
     43 H15         1.8833   -2.3177   -0.4832 H         1 <0>         0.0715
     44 H16         3.4114   -1.4247   -0.6180 H         1 <0>         0.0800
     45 H17         2.1834   -1.5847    2.1209 H         1 <0>         0.0728
     46 H18         2.8952   -3.0816    1.4596 H         1 <0>         0.0675
     47 H19         4.9510   -2.2549    2.0439 H         1 <0>         0.0604
     48 H20         4.7314   -1.0152    0.7817 H         1 <0>         0.0682
     49 H21         3.7152   -0.8059    3.6425 H         1 <0>         0.0549
     50 H22         5.2064   -0.0651    3.0567 H         1 <0>         0.0488
     51 H23         2.4781    0.5695    1.9527 H         1 <0>         0.0830
     52 H24         3.2533    1.4661    3.2721 H         1 <0>         0.0549
     53 H25         3.9120    2.7686    1.4616 H         1 <0>         0.0666
     54 H26         5.2688    1.6070    1.4975 H         1 <0>         0.0634
     55 H27         4.0389    1.9528   -0.7855 H         1 <0>         0.0653
     56 H28         4.3139    0.2758   -0.2441 H         1 <0>         0.0835
     57 O5         -5.8576    0.3075    1.3000 O.co2     1 <0>        -0.7723
@<TRIPOS>BOND
     1    1    2 1
     2    1   31 1
     3    1   32 1
     4    1   33 1
     5    2    3 1
     6    2   34 1
     7    2   35 1
     8    3    4 1
     9    4    5 2
    10    4    6 1
    11    6   10 2
    12    6    7 1
    13    7   30 1
    14    7    8 2
    15    8    9 1
    16    8   24 1
    17    9   10 1
    18   10   11 1
    19   11   12 am
    20   11   36 1
    21   12   13 2
    22   12   14 1
    23   14   15 1
    24   14   20 1
    25   14   16 1
    26   16   17 1
    27   16   37 1
    28   16   38 1
    29   17   18 2
    30   17   39 1
    31   18   19 1
    32   18   40 1
    33   19   20 1
    34   19   41 1
    35   19   42 1
    36   20   21 1
    37   20   22 1
    38   22   23 2
    39   22   57 1
    40   24   25 1
    41   24   43 1
    42   24   44 1
    43   25   26 1
    44   25   45 1
    45   25   46 1
    46   26   27 1
    47   26   47 1
    48   26   48 1
    49   27   28 1
    50   27   49 1
    51   27   50 1
    52   28   29 1
    53   28   51 1
    54   28   52 1
    55   29   30 1
    56   29   53 1
    57   29   54 1
    58   30   55 1
    59   30   56 1
@<TRIPOS>MOLECULE
ZINC16927887
   48    50     0     0     0
SMALL
USER_CHARGES
2-[[(5Z)-3-ethyl-5-[(E)-2-methyl-3-phenyl-prop-2-enylidene]-4-oxo-thiazolidin-2-ylidene]amino]-5-hydroxy-benzoic acid
@<TRIPOS>ATOM
      1 C1        -10.0970    0.5244    1.0307 C.3       1 <0>        -0.1605
      2 C2         -9.2298    0.7597    2.2690 C.3       1 <0>         0.0968
      3 N1         -7.9755    1.4039    1.8716 N.am      1 <0>        -0.5338
      4 C3         -6.9321    0.6598    1.5459 C.2       1 <0>         0.5545
      5 O1         -6.9869   -0.5563    1.5663 O.2       1 <0>        -0.5008
      6 C4         -5.6989    1.3686    1.1609 C.2       1 <0>        -0.1920
      7 C5         -4.4890    0.8605    0.7865 C.2       1 <0>         0.0274
      8 C6         -3.4825    1.7205    0.3046 C.2       1 <0>        -0.1003
      9 C7         -2.2472    1.2343    0.0376 C.2       1 <0>        -0.0752
     10 C8         -1.1629    2.1511   -0.3434 C.ar      1 <0>        -0.0639
     11 C9         -0.1844    1.7424   -1.2565 C.ar      1 <0>        -0.1038
     12 C10         0.8259    2.6102   -1.6128 C.ar      1 <0>        -0.1247
     13 C11         0.8772    3.8807   -1.0655 C.ar      1 <0>        -0.1154
     14 C12        -0.0833    4.2905   -0.1569 C.ar      1 <0>        -0.1225
     15 C13        -1.1001    3.4349    0.2100 C.ar      1 <0>        -0.1055
     16 C14        -3.7805    3.1815    0.0864 C.3       1 <0>        -0.1421
     17 S1         -6.2166    3.0726    1.3089 S.3       1 <0>        -0.0269
     18 C15        -7.8967    2.7776    1.8360 C.2       1 <0>         0.3531
     19 N2         -8.8322    3.6592    2.1214 N.2       1 <0>        -0.3802
     20 C16        -8.6052    4.9852    1.9109 C.ar      1 <0>         0.1068
     21 C17        -8.1020    5.4266    0.6834 C.ar      1 <0>        -0.1420
     22 C18        -7.8733    6.7677    0.4744 C.ar      1 <0>        -0.1278
     23 C19        -8.1398    7.6945    1.4782 C.ar      1 <0>         0.0813
     24 C20        -8.6378    7.2807    2.6984 C.ar      1 <0>        -0.0884
     25 C21        -8.8818    5.9234    2.9283 C.ar      1 <0>        -0.0782
     26 C22        -9.4171    5.4760    4.2228 C.2       1 <0>         0.4864
     27 O2         -9.6230    4.2942    4.4197 O.co2     1 <0>        -0.6026
     28 O3         -7.9089    9.0161    1.2559 O.3       1 <0>        -0.4993
     29 H1        -10.3146    1.4795    0.5527 H         1 <0>         0.0613
     30 H2         -9.5639   -0.1190    0.3307 H         1 <0>         0.0549
     31 H3        -11.0302    0.0451    1.3264 H         1 <0>         0.0737
     32 H4         -9.0121   -0.1954    2.7470 H         1 <0>         0.0907
     33 H5         -9.7629    1.4031    2.9690 H         1 <0>         0.1097
     34 H6         -4.3030   -0.2008    0.8595 H         1 <0>         0.1509
     35 H7         -2.0585    0.1730    0.1044 H         1 <0>         0.1307
     36 H8         -0.2230    0.7515   -1.6844 H         1 <0>         0.1244
     37 H9          1.5791    2.2982   -2.3211 H         1 <0>         0.1221
     38 H10         1.6712    4.5557   -1.3488 H         1 <0>         0.1209
     39 H11        -0.0358    5.2831    0.2661 H         1 <0>         0.1248
     40 H12        -1.8488    3.7562    0.9190 H         1 <0>         0.1347
     41 H13        -3.0967    3.5842   -0.6608 H         1 <0>         0.0851
     42 H14        -4.8071    3.2948   -0.2620 H         1 <0>         0.0847
     43 H15        -3.6534    3.7223    1.0242 H         1 <0>         0.0830
     44 H16        -7.8922    4.7147   -0.1012 H         1 <0>         0.1273
     45 H17        -7.4844    7.1035   -0.4756 H         1 <0>         0.1273
     46 H18        -8.8425    8.0054    3.4725 H         1 <0>         0.1440
     47 H19        -8.6662    9.4911    0.8872 H         1 <0>         0.3841
     48 O4         -9.6796    6.3764    5.1912 O.co2     1 <0>        -0.7546
@<TRIPOS>BOND
     1    1    2 1
     2    1   29 1
     3    1   30 1
     4    1   31 1
     5    2    3 1
     6    2   32 1
     7    2   33 1
     8    3   18 1
     9    3    4 am
    10    4    5 2
    11    4    6 1
    12    6    7 2
    13    6   17 1
    14    7    8 1
    15    7   34 1
    16    8    9 2
    17    8   16 1
    18    9   10 1
    19    9   35 1
    20   10   15 ar
    21   10   11 ar
    22   11   12 ar
    23   11   36 1
    24   12   13 ar
    25   12   37 1
    26   13   14 ar
    27   13   38 1
    28   14   15 ar
    29   14   39 1
    30   15   40 1
    31   16   41 1
    32   16   42 1
    33   16   43 1
    34   17   18 1
    35   18   19 2
    36   19   20 1
    37   20   25 ar
    38   20   21 ar
    39   21   22 ar
    40   21   44 1
    41   22   23 ar
    42   22   45 1
    43   23   24 ar
    44   23   28 1
    45   24   25 ar
    46   24   46 1
    47   25   26 1
    48   26   27 2
    49   26   48 1
    50   28   47 1
@<TRIPOS>MOLECULE
ZINC32099719
   46    49     0     0     0
SMALL
USER_CHARGES
4-fluoro-3-methyl-N-[4-(4-phenyl-5-thioxo-1H-1,2,4-triazol-3-yl)phenyl]benzenesulfonamide
@<TRIPOS>ATOM
      1 C1          1.7067    2.9490    3.6279 C.3       1 <0>        -0.1164
      2 C2          2.3462    3.7691    2.5373 C.ar      1 <0>        -0.1418
      3 C3          3.3032    3.2022    1.7168 C.ar      1 <0>         0.0081
      4 C4          3.8899    3.9542    0.7164 C.ar      1 <0>        -0.6846
      5 C5          3.5211    5.2745    0.5358 C.ar      1 <0>         0.0106
      6 C6          2.5647    5.8434    1.3548 C.ar      1 <0>        -0.1679
      7 C7          1.9758    5.0908    2.3571 C.ar      1 <0>         0.1545
      8 F1          1.0403    5.6459    3.1583 F         1 <0>        -0.1278
      9 S1          5.1093    3.2299   -0.3292 S.o2      1 <0>         2.6943
     10 O1          5.8177    4.3044   -0.9317 O.2       1 <0>        -0.9459
     11 O2          5.7577    2.2253    0.4385 O.2       1 <0>        -0.9574
     12 N1          4.3068    2.4490   -1.5493 N.pl3     1 <0>        -1.0705
     13 C8          3.5219    3.1757   -2.4450 C.ar      1 <0>         0.1169
     14 C9          2.1353    3.1164   -2.3590 C.ar      1 <0>        -0.1058
     15 C10         1.3576    3.8375   -3.2387 C.ar      1 <0>        -0.1102
     16 C11         1.9630    4.6192   -4.2241 C.ar      1 <0>         0.0187
     17 C12         3.3551    4.6724   -4.3116 C.ar      1 <0>        -0.0786
     18 C13         4.1278    3.9536   -3.4256 C.ar      1 <0>        -0.1024
     19 C14         1.1310    5.3892   -5.1739 C.2       1 <0>         0.1986
     20 N2          1.5489    6.3565   -5.9421 N.2       1 <0>        -0.2970
     21 N3          0.4574    6.8201   -6.6891 N.2       1 <0>        -0.3743
     22 C15        -0.6207    6.0954   -6.3263 C.2       1 <0>         0.3966
     23 S2         -2.2090    6.2703   -6.9407 S.3       1 <0>        -0.7559
     24 N4         -0.2221    5.2086   -5.3927 N.pl3     1 <0>        -0.4642
     25 C16        -1.0385    4.2666   -4.7536 C.ar      1 <0>         0.1513
     26 C17        -0.8250    2.9095   -4.9564 C.ar      1 <0>        -0.1100
     27 C18        -1.6283    1.9831   -4.3208 C.ar      1 <0>        -0.1148
     28 C19        -2.6512    2.4059   -3.4918 C.ar      1 <0>        -0.1202
     29 C20        -2.8696    3.7566   -3.2919 C.ar      1 <0>        -0.1113
     30 C21        -2.0664    4.6879   -3.9206 C.ar      1 <0>        -0.0858
     31 H1          2.1258    1.9320    3.6156 H         1 <0>         0.0765
     32 H2          0.6206    2.9000    3.4608 H         1 <0>         0.0763
     33 H3          1.9070    3.4163    4.6034 H         1 <0>         0.0750
     34 H4          3.5923    2.1711    1.8571 H         1 <0>         0.1478
     35 H5          3.9802    5.8611   -0.2462 H         1 <0>         0.1526
     36 H6          2.2732    6.8733    1.2105 H         1 <0>         0.1475
     37 H7          4.3926    1.3573   -1.6535 H         1 <0>         0.4499
     38 H8          1.6675    2.5079   -1.5991 H         1 <0>         0.1284
     39 H9          0.2808    3.7945   -3.1687 H         1 <0>         0.1360
     40 H10         3.8262    5.2760   -5.0733 H         1 <0>         0.1417
     41 H11         5.2049    3.9946   -3.4926 H         1 <0>         0.1385
     42 H12        -0.0294    2.5788   -5.6075 H         1 <0>         0.1220
     43 H13        -1.4600    0.9274   -4.4746 H         1 <0>         0.1254
     44 H14        -3.2806    1.6795   -2.9991 H         1 <0>         0.1227
     45 H15        -3.6692    4.0837   -2.6439 H         1 <0>         0.1260
     46 H16        -2.2375    5.7427   -3.7641 H         1 <0>         0.1267
@<TRIPOS>BOND
     1    1    2 1
     2    1   31 1
     3    1   32 1
     4    1   33 1
     5    2    7 ar
     6    2    3 ar
     7    3    4 ar
     8    3   34 1
     9    4    5 ar
    10    4    9 1
    11    5    6 ar
    12    5   35 1
    13    6    7 ar
    14    6   36 1
    15    7    8 1
    16    9   10 2
    17    9   11 2
    18    9   12 1
    19   12   13 1
    20   12   37 1
    21   13   18 ar
    22   13   14 ar
    23   14   15 ar
    24   14   38 1
    25   15   16 ar
    26   15   39 1
    27   16   17 ar
    28   16   19 1
    29   17   18 ar
    30   17   40 1
    31   18   41 1
    32   19   24 1
    33   19   20 2
    34   20   21 1
    35   21   22 2
    36   22   23 1
    37   22   24 1
    38   24   25 1
    39   25   30 ar
    40   25   26 ar
    41   26   27 ar
    42   26   42 1
    43   27   28 ar
    44   27   43 1
    45   28   29 ar
    46   28   44 1
    47   29   30 ar
    48   29   45 1
    49   30   46 1
@<TRIPOS>MOLECULE
ZINC39997284
   40    42     0     0     0
SMALL
USER_CHARGES

@<TRIPOS>ATOM
      1 C1         -2.2307    0.9490    0.3039 C.ar      1 <0>        -0.1162
      2 C2         -1.1915    1.8489    0.1558 C.ar      1 <0>        -0.1058
      3 C3          0.1008    1.3904   -0.0154 C.ar      1 <0>        -0.1121
      4 C4          0.3548    0.0303   -0.0382 C.ar      1 <0>        -0.0209
      5 C5         -0.6853   -0.8695    0.1104 C.ar      1 <0>        -0.0613
      6 C6         -1.9777   -0.4096    0.2811 C.ar      1 <0>        -0.0887
      7 C7         -0.4096   -2.3509    0.0851 C.3       1 <0>        -0.0746
      8 S1         -0.0689   -2.9313    1.7697 S.3       1 <0>         0.0137
      9 C8          0.2293   -4.6568    1.5738 C.2       1 <0>        -0.0683
     10 N1          0.2253   -5.4030    0.4767 N.2       1 <0>        -0.2415
     11 N2          0.4627   -6.6412    0.5110 N.2       1 <0>        -0.3413
     12 C9          0.7314   -7.2719    1.6513 C.2       1 <0>         0.3655
     13 S2          0.6317   -5.9001    2.7977 S.3       1 <0>        -0.0616
     14 N3          1.0079   -8.5821    1.8800 N.2       1 <0>        -0.6021
     15 C10         1.0365   -9.4324    0.8779 C.2       1 <0>         0.4668
     16 O1          0.7905   -9.0026   -0.3814 O.3       1 <0>        -0.6263
     17 C11         1.3356  -10.8497    1.1253 C.2       1 <0>        -0.0281
     18 C12         1.3656  -11.7409    0.0749 C.2       1 <0>         0.0071
     19 C13         1.4964  -13.1764    0.3359 C.ar      1 <0>        -0.0843
     20 C14         0.9070  -13.7411    1.4760 C.ar      1 <0>        -0.0809
     21 C15         1.0325  -15.0855    1.7146 C.ar      1 <0>        -0.1426
     22 C16         1.7430  -15.8885    0.8288 C.ar      1 <0>         0.1106
     23 C17         2.3302  -15.3342   -0.3036 C.ar      1 <0>        -0.1481
     24 C18         2.2064  -13.9923   -0.5563 C.ar      1 <0>        -0.0753
     25 O2          1.8641  -17.2185    1.0706 O.3       1 <0>        -0.4995
     26 C19         1.5959  -11.3045    2.4579 C.1       1 <0>         0.2744
     27 N4          1.8024  -11.6654    3.5151 N.1       1 <0>        -0.4299
     28 Cl1         1.9779   -0.5464   -0.2539 Cl        1 <0>        -0.0555
     29 H1         -3.2400    1.3079    0.4418 H         1 <0>         0.1306
     30 H2         -1.3899    2.9104    0.1737 H         1 <0>         0.1314
     31 H3          0.9124    2.0934   -0.1317 H         1 <0>         0.1343
     32 H4         -2.7898   -1.1121    0.3967 H         1 <0>         0.1367
     33 H5         -1.2790   -2.8755   -0.3111 H         1 <0>         0.1047
     34 H6          0.4545   -2.5489   -0.5491 H         1 <0>         0.1070
     35 H7          1.2927  -11.3812   -0.9408 H         1 <0>         0.1635
     36 H8          0.3557  -13.1184    2.1650 H         1 <0>         0.1300
     37 H9          0.5790  -15.5216    2.5924 H         1 <0>         0.1303
     38 H10         2.8812  -15.9628   -0.9874 H         1 <0>         0.1316
     39 H11         2.6588  -13.5638   -1.4385 H         1 <0>         0.1370
     40 H12         1.1586  -17.7546    0.6832 H         1 <0>         0.3898
@<TRIPOS>BOND
     1    1    6 ar
     2    1    2 ar
     3    1   29 1
     4    2    3 ar
     5    2   30 1
     6    3    4 ar
     7    3   31 1
     8    4    5 ar
     9    4   28 1
    10    5    6 ar
    11    5    7 1
    12    6   32 1
    13    7    8 1
    14    7   33 1
    15    7   34 1
    16    8    9 1
    17    9   13 1
    18    9   10 2
    19   10   11 1
    20   11   12 2
    21   12   13 1
    22   12   14 1
    23   14   15 2
    24   15   16 1
    25   15   17 1
    26   17   18 2
    27   17   26 1
    28   18   19 1
    29   18   35 1
    30   19   24 ar
    31   19   20 ar
    32   20   21 ar
    33   20   36 1
    34   21   22 ar
    35   21   37 1
    36   22   23 ar
    37   22   25 1
    38   23   24 ar
    39   23   38 1
    40   24   39 1
    41   25   40 1
    42   26   27 3
@<TRIPOS>MOLECULE
ZINC39899016
   48    52     0     0     0
SMALL
USER_CHARGES

@<TRIPOS>ATOM
      1 C1         -0.1320    1.9099    0.0108 C.ar      1 <0>        -0.0600
      2 C2          1.0587    2.6082    0.0772 C.ar      1 <0>        -0.1536
      3 C3          2.2314    1.9469    0.4006 C.ar      1 <0>         0.1098
      4 C4          2.2095    0.5864    0.6571 C.ar      1 <0>        -0.1587
      5 C5          1.0176   -0.1098    0.5901 C.ar      1 <0>        -0.0647
      6 C6         -0.1526    0.5516    0.2672 C.ar      1 <0>        -0.1314
      7 C7         -1.4517   -0.2087    0.1945 C.3       1 <0>         0.1820
      8 N1         -1.6479   -0.7111   -1.1676 N.am      1 <0>        -0.5917
      9 C8         -2.3294   -0.0001   -2.2571 C.3       1 <0>         0.2494
     10 H1         -3.3653    0.2008   -1.9838 H         1 <0>         0.1147
     11 C9         -2.2768   -0.9158   -3.4492 C.2       1 <0>        -0.1683
     12 C10        -2.6065   -1.1227   -4.7930 C.2       1 <0>         0.1220
     13 N2         -2.1529   -2.3136   -5.1316 N.2       1 <0>        -0.2368
     14 N3         -1.5698   -2.8788   -4.1352 N.pl3     1 <0>        -0.3304
     15 H2         -1.1609   -3.7582   -4.1547 H         1 <0>         0.4545
     16 C11        -1.6106   -2.0568   -3.0450 C.2       1 <0>        -0.0578
     17 C12        -1.2298   -1.9005   -1.6367 C.2       1 <0>         0.6004
     18 O1         -0.6246   -2.7301   -0.9850 O.2       1 <0>        -0.5120
     19 C13        -3.3335   -0.1761   -5.6750 C.ar      1 <0>        -0.0267
     20 C14        -4.4884    0.4559   -5.2212 C.ar      1 <0>        -0.0713
     21 C15        -5.1613    1.3365   -6.0457 C.ar      1 <0>        -0.0433
     22 C16        -4.6913    1.5927   -7.3228 C.ar      1 <0>        -0.0834
     23 C17        -3.5461    0.9702   -7.7817 C.ar      1 <0>        -0.1319
     24 C18        -2.8588    0.0891   -6.9623 C.ar      1 <0>         0.1422
     25 O2         -1.7295   -0.5190   -7.4110 O.3       1 <0>        -0.4872
     26 Cl1        -6.6010    2.1241   -5.4793 Cl        1 <0>        -0.0599
     27 C19        -1.6140    1.2910   -2.5611 C.ar      1 <0>        -0.0932
     28 C20        -0.2472    1.2914   -2.7684 C.ar      1 <0>        -0.0661
     29 C21         0.4094    2.4751   -3.0472 C.ar      1 <0>        -0.1041
     30 C22        -0.3014    3.6599   -3.1190 C.ar      1 <0>        -0.0234
     31 C23        -1.6693    3.6589   -2.9115 C.ar      1 <0>        -0.1093
     32 C24        -2.3257    2.4737   -2.6383 C.ar      1 <0>        -0.0895
     33 Cl2         0.5228    5.1472   -3.4686 Cl        1 <0>        -0.0661
     34 F1          3.3961    2.6284    0.4653 F         1 <0>        -0.1381
     35 H3         -1.0476    2.4264   -0.2371 H         1 <0>         0.1301
     36 H4          1.0746    3.6693   -0.1234 H         1 <0>         0.1339
     37 H5          3.1237    0.0695    0.9091 H         1 <0>         0.1355
     38 H6          1.0004   -1.1710    0.7898 H         1 <0>         0.1358
     39 H7         -1.4213   -1.0473    0.8902 H         1 <0>         0.1034
     40 H8         -2.2757    0.4537    0.4596 H         1 <0>         0.1006
     41 H9         -4.8578    0.2576   -4.2259 H         1 <0>         0.1392
     42 H10        -5.2222    2.2817   -7.9630 H         1 <0>         0.1414
     43 H11        -3.1841    1.1737   -8.7787 H         1 <0>         0.1436
     44 H12        -1.8876   -1.3622   -7.8572 H         1 <0>         0.3969
     45 H13         0.3076    0.3665   -2.7120 H         1 <0>         0.1205
     46 H14         1.4773    2.4753   -3.2088 H         1 <0>         0.1306
     47 H15        -2.2247    4.5835   -2.9671 H         1 <0>         0.1367
     48 H16        -3.3942    2.4720   -2.4810 H         1 <0>         0.1356
@<TRIPOS>BOND
     1    1    6 ar
     2    1    2 ar
     3    1   35 1
     4    2    3 ar
     5    2   36 1
     6    3    4 ar
     7    3   34 1
     8    4    5 ar
     9    4   37 1
    10    5    6 ar
    11    5   38 1
    12    6    7 1
    13    7    8 1
    14    7   39 1
    15    7   40 1
    16    8   17 am
    17    8    9 1
    18    9   10 1
    19    9   11 1
    20    9   27 1
    21   11   16 2
    22   11   12 1
    23   12   13 2
    24   12   19 1
    25   13   14 1
    26   14   15 1
    27   14   16 1
    28   16   17 1
    29   17   18 2
    30   19   24 ar
    31   19   20 ar
    32   20   21 ar
    33   20   41 1
    34   21   22 ar
    35   21   26 1
    36   22   23 ar
    37   22   42 1
    38   23   24 ar
    39   23   43 1
    40   24   25 1
    41   25   44 1
    42   27   32 ar
    43   27   28 ar
    44   28   29 ar
    45   28   45 1
    46   29   30 ar
    47   29   46 1
    48   30   31 ar
    49   30   33 1
    50   31   32 ar
    51   31   47 1
    52   32   48 1
@<TRIPOS>MOLECULE
ZINC13076245
   52    56     0     0     0
SMALL
USER_CHARGES

@<TRIPOS>ATOM
      1 C1         -0.0187    1.5258    0.0104 C.3       1 <0>        -0.1492
      2 C2          0.0021   -0.0041    0.0020 C.3       1 <0>         0.0515
      3 O1         -1.3386   -0.4987    0.0122 O.3       1 <0>        -0.3102
      4 C3         -1.4984   -1.8492    0.0064 C.ar      1 <0>         0.1022
      5 C4         -0.3893   -2.6797   -0.0028 C.ar      1 <0>        -0.1875
      6 C5         -0.5535   -4.0523   -0.0082 C.ar      1 <0>        -0.0386
      7 C6         -1.8231   -4.5996   -0.0047 C.ar      1 <0>        -0.1071
      8 C7         -2.9339   -3.7768    0.0040 C.ar      1 <0>        -0.1063
      9 C8         -2.7762   -2.4001    0.0157 C.ar      1 <0>         0.0595
     10 O2         -3.8679   -1.5893    0.0304 O.3       1 <0>        -0.4880
     11 C9          0.6539   -4.9539   -0.0182 C.3       1 <0>         0.2861
     12 H1          1.5076   -4.3754    0.3348 H         1 <0>         0.0500
     13 C10         0.9240   -5.3628   -1.4544 C.2       1 <0>        -0.3858
     14 C11         0.9241   -6.6803   -1.7336 C.2       1 <0>         0.2365
     15 N1          0.6923   -7.6109   -0.7743 N.2       1 <0>        -0.6677
     16 C12         0.4518   -7.3322    0.4863 C.2       1 <0>         0.5267
     17 N2          0.4162   -6.0445    0.9370 N.pl3     1 <0>        -0.4542
     18 N3          0.1406   -6.0757    2.3053 N.2       1 <0>        -0.3421
     19 C13         0.0147   -7.3206    2.6704 C.2       1 <0>         0.2462
     20 N4          0.2002   -8.1329    1.5703 N.2       1 <0>        -0.5967
     21 C14        -0.2797   -7.7877    4.0431 C.ar      1 <0>         0.0193
     22 C15        -0.4529   -6.8648    5.0750 C.ar      1 <0>        -0.0941
     23 C16        -0.7272   -7.3068    6.3530 C.ar      1 <0>        -0.1284
     24 C17        -0.8302   -8.6619    6.6122 C.ar      1 <0>        -0.1241
     25 C18        -0.6592   -9.5820    5.5933 C.ar      1 <0>        -0.1285
     26 C19        -0.3910   -9.1526    4.3098 C.ar      1 <0>        -0.0827
     27 C20         1.1838   -7.1250   -3.1253 C.ar      1 <0>        -0.0101
     28 C21         1.4295   -6.1857   -4.1250 C.ar      1 <0>        -0.0979
     29 C22         1.6704   -6.6042   -5.4176 C.ar      1 <0>        -0.1186
     30 C23         1.6683   -7.9548   -5.7222 C.ar      1 <0>        -0.0417
     31 C24         1.4247   -8.8918   -4.7325 C.ar      1 <0>        -0.1198
     32 C25         1.1884   -8.4835   -3.4358 C.ar      1 <0>        -0.0702
     33 Cl1         1.9714   -8.4749   -7.3504 Cl        1 <0>        -0.0885
     34 H2          1.0039    1.9031    0.0027 H         1 <0>         0.0761
     35 H3         -0.5459    1.8868   -0.8726 H         1 <0>         0.0642
     36 H4         -0.5289    1.8773    0.9072 H         1 <0>         0.0648
     37 H5          0.5123   -0.3556   -0.8948 H         1 <0>         0.0608
     38 H6          0.5293   -0.3651    0.8851 H         1 <0>         0.0606
     39 H7          0.6036   -2.2546   -0.0062 H         1 <0>         0.1277
     40 H8         -1.9473   -5.6725   -0.0093 H         1 <0>         0.1176
     41 H9         -3.9246   -4.2069    0.0063 H         1 <0>         0.1295
     42 H10        -4.1920   -1.3501   -0.8487 H         1 <0>         0.3785
     43 H11         1.1085   -4.6262   -2.2224 H         1 <0>         0.1242
     44 H12        -0.3720   -5.8068    4.8740 H         1 <0>         0.1269
     45 H13        -0.8615   -6.5934    7.1526 H         1 <0>         0.1195
     46 H14        -1.0448   -9.0028    7.6143 H         1 <0>         0.1167
     47 H15        -0.7401  -10.6385    5.8022 H         1 <0>         0.1207
     48 H16        -0.2624   -9.8717    3.5144 H         1 <0>         0.1345
     49 H17         1.4310   -5.1319   -3.8885 H         1 <0>         0.1337
     50 H18         1.8605   -5.8770   -6.1931 H         1 <0>         0.1281
     51 H19         1.4238   -9.9442   -4.9751 H         1 <0>         0.1287
     52 H20         1.0034   -9.2155   -2.6635 H         1 <0>         0.1470
@<TRIPOS>BOND
     1    1    2 1
     2    1   34 1
     3    1   35 1
     4    1   36 1
     5    2    3 1
     6    2   37 1
     7    2   38 1
     8    3    4 1
     9    4    9 ar
    10    4    5 ar
    11    5    6 ar
    12    5   39 1
    13    6    7 ar
    14    6   11 1
    15    7    8 ar
    16    7   40 1
    17    8    9 ar
    18    8   41 1
    19    9   10 1
    20   10   42 1
    21   11   12 1
    22   11   17 1
    23   11   13 1
    24   13   14 2
    25   13   43 1
    26   14   15 1
    27   14   27 1
    28   15   16 2
    29   16   20 1
    30   16   17 1
    31   17   18 1
    32   18   19 2
    33   19   20 1
    34   19   21 1
    35   21   26 ar
    36   21   22 ar
    37   22   23 ar
    38   22   44 1
    39   23   24 ar
    40   23   45 1
    41   24   25 ar
    42   24   46 1
    43   25   26 ar
    44   25   47 1
    45   26   48 1
    46   27   32 ar
    47   27   28 ar
    48   28   29 ar
    49   28   49 1
    50   29   30 ar
    51   29   50 1
    52   30   31 ar
    53   30   33 1
    54   31   32 ar
    55   31   51 1
    56   32   52 1
@<TRIPOS>MOLECULE
ZINC22229460
   48    50     0     0     0
SMALL
USER_CHARGES
(5E)-5-[(3-allyl-5-ethoxy-4-hydroxy-phenyl)methylene]-1-(4-chlorophenyl)-2-thioxo-hexahydropyrimidine-4,6-dione
@<TRIPOS>ATOM
      1 C1         -3.2808   -3.5763    2.0923 C.3       1 <0>        -0.1486
      2 C2         -2.2280   -3.2124    1.0435 C.3       1 <0>         0.0491
      3 O1         -1.4644   -2.0952    1.5027 O.3       1 <0>        -0.3067
      4 C3         -0.4791   -1.6418    0.6825 C.ar      1 <0>         0.0848
      5 C4         -0.2555   -2.2570   -0.5316 C.ar      1 <0>        -0.0752
      6 C5          0.7620   -1.7858   -1.3753 C.ar      1 <0>        -0.0862
      7 C6          1.5420   -0.6884   -0.9800 C.ar      1 <0>        -0.0750
      8 C7          1.3137   -0.0856    0.2354 C.ar      1 <0>        -0.1596
      9 C8          0.3050   -0.5537    1.0695 C.ar      1 <0>         0.1534
     10 O2          0.0820    0.0491    2.2649 O.3       1 <0>        -0.4939
     11 C9          2.1555    1.0896    0.6610 C.3       1 <0>        -0.0462
     12 C10         3.2916    0.6069    1.5255 C.2       1 <0>        -0.1566
     13 C11         4.5276    0.9030    1.2084 C.2       1 <0>        -0.1913
     14 C12         1.0049   -2.4327   -2.6645 C.2       1 <0>         0.0696
     15 C13         1.0874   -3.8096   -2.7418 C.2       1 <0>        -0.2831
     16 C14         1.1748   -4.6463   -1.5282 C.2       1 <0>         0.5255
     17 O3          1.1761   -4.1430   -0.4208 O.3       1 <0>        -0.4997
     18 N1          1.2473   -5.9846   -1.6815 N.2       1 <0>        -0.6213
     19 C15         1.2525   -6.5520   -2.8957 C.2       1 <0>         0.5414
     20 S1          1.3553   -8.2582   -2.9917 S.2       1 <0>        -0.6798
     21 N2          1.1813   -5.8560   -4.0389 N.am      1 <0>        -0.5127
     22 C16         1.0983   -4.5096   -4.0415 C.2       1 <0>         0.5616
     23 O4          1.0338   -3.8894   -5.0860 O.2       1 <0>        -0.5065
     24 C17         1.1939   -6.5432   -5.2601 C.ar      1 <0>         0.1697
     25 C18         2.4016   -6.8582   -5.8684 C.ar      1 <0>        -0.0770
     26 C19         2.4114   -7.5401   -7.0694 C.ar      1 <0>        -0.1002
     27 C20         1.2186   -7.9001   -7.6717 C.ar      1 <0>        -0.0313
     28 C21         0.0135   -7.5822   -7.0703 C.ar      1 <0>        -0.1005
     29 C22        -0.0015   -6.9050   -5.8668 C.ar      1 <0>        -0.0809
     30 Cl1         1.2342   -8.7514   -9.1846 Cl        1 <0>        -0.0798
     31 H1         -3.8686   -4.4363    1.7388 H         1 <0>         0.0774
     32 H2         -3.9487   -2.7175    2.2546 H         1 <0>         0.0625
     33 H3         -2.7820   -3.8367    3.0375 H         1 <0>         0.0663
     34 H4         -1.5601   -4.0712    0.8811 H         1 <0>         0.0701
     35 H5         -2.7268   -2.9520    0.0983 H         1 <0>         0.0556
     36 H6         -0.8618   -3.0987   -0.8321 H         1 <0>         0.1299
     37 H7          2.3237   -0.3198   -1.6277 H         1 <0>         0.1258
     38 H8          0.6986    0.9067    2.5719 H         1 <0>         0.4203
     39 H9          2.5605    1.5922   -0.2297 H         1 <0>         0.0848
     40 H10         1.5358    1.7972    1.2313 H         1 <0>         0.0780
     41 H11         3.0829    0.0059    2.4228 H         1 <0>         0.1131
     42 H12         5.3568    0.5506    1.8395 H         1 <0>         0.1002
     43 H13         4.7363    1.5040    0.3111 H         1 <0>         0.0983
     44 H14         1.1219   -1.8229   -3.5725 H         1 <0>         0.1466
     45 H15         3.3326   -6.5736   -5.4009 H         1 <0>         0.1291
     46 H16         3.3506   -7.7890   -7.5409 H         1 <0>         0.1353
     47 H17        -0.9160   -7.8636   -7.5427 H         1 <0>         0.1351
     48 H18        -0.9423   -6.6569   -5.3980 H         1 <0>         0.1284
@<TRIPOS>BOND
     1    1    2 1
     2    1   31 1
     3    1   32 1
     4    1   33 1
     5    2    3 1
     6    2   34 1
     7    2   35 1
     8    3    4 1
     9    4    9 ar
    10    4    5 ar
    11    5    6 ar
    12    5   36 1
    13    6    7 ar
    14    6   14 1
    15    7    8 ar
    16    7   37 1
    17    8    9 ar
    18    8   11 1
    19    9   10 1
    20   10   38 1
    21   11   12 1
    22   11   39 1
    23   11   40 1
    24   12   13 2
    25   12   41 1
    26   13   42 1
    27   13   43 1
    28   14   15 2
    29   14   44 1
    30   15   22 1
    31   15   16 1
    32   16   17 1
    33   16   18 2
    34   18   19 1
    35   19   20 2
    36   19   21 1
    37   21   22 am
    38   21   24 1
    39   22   23 2
    40   24   29 ar
    41   24   25 ar
    42   25   26 ar
    43   25   45 1
    44   26   27 ar
    45   26   46 1
    46   27   28 ar
    47   27   30 1
    48   28   29 ar
    49   28   47 1
    50   29   48 1
@<TRIPOS>MOLECULE
ZINC33007774
   38    40     0     0     0
SMALL
USER_CHARGES
N-[6-[(3-chloro-4-fluoro-phenyl)sulfonylamino]-4-methyl-1,3-benzothiazol-2-yl]acetamide
@<TRIPOS>ATOM
      1 C1         -1.5901   -3.6210    2.7508 C.3       1 <0>        -0.1018
      2 C2         -0.6500   -2.4836    2.4453 C.ar      1 <0>        -0.0221
      3 C3         -0.8491   -1.7245    1.3223 C.ar      1 <0>        -0.1440
      4 C4         -0.0042   -0.6640    1.0032 C.ar      1 <0>         0.2533
      5 C5          1.0660   -0.3755    1.8404 C.ar      1 <0>        -0.1212
      6 C6          1.2643   -1.1305    2.9688 C.ar      1 <0>        -0.1283
      7 C7          0.4261   -2.2129    3.3214 C.ar      1 <0>         0.0340
      8 N1          0.7569   -2.8616    4.4607 N.2       1 <0>        -0.5192
      9 C8          1.7865   -2.5152    5.1960 C.2       1 <0>         0.3135
     10 S1          2.4533   -1.1271    4.2891 S.3       1 <0>         0.0485
     11 N2          2.2419   -3.0821    6.3761 N.am      1 <0>        -0.6252
     12 C9          3.3307   -2.5777    6.9897 C.2       1 <0>         0.5095
     13 O1          3.9120   -1.6280    6.5094 O.2       1 <0>        -0.5072
     14 C10         3.8258   -3.1940    8.2727 C.3       1 <0>        -0.1664
     15 N3         -0.2273    0.0975   -0.1493 N.2       1 <0>        -1.0743
     16 S2          0.7408   -0.1072   -1.4772 S.o2      1 <0>         2.5924
     17 O2          0.2337    0.7553   -2.4862 O.2       1 <0>        -0.9904
     18 O3          2.0830   -0.0341   -1.0164 O.2       1 <0>        -1.0277
     19 C11         0.4948   -1.7544   -2.0523 C.ar      1 <0>        -0.6544
     20 C12         1.3622   -2.7585   -1.6636 C.ar      1 <0>         0.0030
     21 C13         1.1676   -4.0521   -2.1091 C.ar      1 <0>        -0.1652
     22 C14         0.1102   -4.3409   -2.9548 C.ar      1 <0>         0.1366
     23 C15        -0.7554   -3.3332   -3.3486 C.ar      1 <0>        -0.0970
     24 C16        -0.5618   -2.0405   -2.8962 C.ar      1 <0>         0.0130
     25 Cl1        -2.0824   -3.6930   -4.4085 Cl        1 <0>        -0.0574
     26 F1         -0.0778   -5.6041   -3.3954 F         1 <0>        -0.1289
     27 H1         -2.3592   -3.6816    1.9667 H         1 <0>         0.0597
     28 H2         -2.0718   -3.4471    3.7243 H         1 <0>         0.0651
     29 H3         -1.0255   -4.5644    2.7843 H         1 <0>         0.0638
     30 H4         -1.6789   -1.9536    0.6701 H         1 <0>         0.1238
     31 H5          1.7345    0.4400    1.6072 H         1 <0>         0.1280
     32 H6          1.7146   -3.9436    6.8117 H         1 <0>         0.4470
     33 H7          4.7170   -2.6509    8.6203 H         1 <0>         0.1008
     34 H8          4.0844   -4.2486    8.0970 H         1 <0>         0.0952
     35 H9          3.0374   -3.1323    9.0373 H         1 <0>         0.0952
     36 H10         2.1900   -2.5325   -1.0077 H         1 <0>         0.1496
     37 H11         1.8430   -4.8367   -1.8015 H         1 <0>         0.1450
     38 H12        -1.2361   -1.2545   -3.2027 H         1 <0>         0.1537
@<TRIPOS>BOND
     1    1    2 1
     2    1   27 1
     3    1   28 1
     4    1   29 1
     5    2    7 ar
     6    2    3 ar
     7    3    4 ar
     8    3   30 1
     9    4    5 ar
    10    4   15 1
    11    5    6 ar
    12    5   31 1
    13    6   10 1
    14    6    7 ar
    15    7    8 1
    16    8    9 2
    17    9   10 1
    18    9   11 1
    19   11   12 am
    20   11   32 1
    21   12   13 2
    22   12   14 1
    23   14   33 1
    24   14   34 1
    25   14   35 1
    26   15   16 1
    27   16   17 2
    28   16   18 2
    29   16   19 1
    30   19   24 ar
    31   19   20 ar
    32   20   21 ar
    33   20   36 1
    34   21   22 ar
    35   21   37 1
    36   22   23 ar
    37   22   26 1
    38   23   24 ar
    39   23   25 1
    40   24   38 1
@<TRIPOS>MOLECULE
ZINC00665735
   37    39     0     0     0
SMALL
USER_CHARGES

@<TRIPOS>ATOM
      1 C1         -0.0166    1.3733    0.0096 C.ar      1 <0>        -0.2354
      2 C2          1.1699    2.0899    0.0021 C.ar      1 <0>        -0.0403
      3 C3          2.3828    1.4328   -0.0134 C.ar      1 <0>        -0.2680
      4 C4          2.4220    0.0438   -0.0217 C.ar      1 <0>         0.3287
      5 C5          1.2224   -0.6846   -0.0136 C.ar      1 <0>        -0.2169
      6 C6          0.0021   -0.0041    0.0020 C.ar      1 <0>        -0.0396
      7 C7          1.2496   -2.1587   -0.0227 C.2       1 <0>         0.5660
      8 O1          2.3137   -2.7471   -0.0372 O.2       1 <0>        -0.4970
      9 N1          0.0951   -2.8540   -0.0150 N.am      1 <0>        -0.7480
     10 C8          0.1221   -4.3188   -0.0240 C.3       1 <0>         0.2061
     11 C9         -1.2891   -4.8473   -0.0127 C.2       1 <0>        -0.0226
     12 C10        -2.0351   -5.1217   -1.0978 C.2       1 <0>        -0.1934
     13 C11        -3.2834   -5.5913   -0.6286 C.2       1 <0>        -0.2174
     14 C12        -3.2256   -5.5758    0.7152 C.2       1 <0>        -0.0389
     15 O2         -2.0132   -5.1297    1.0826 O.3       1 <0>        -0.1714
     16 N2          3.6417   -0.6200   -0.0382 N.2       1 <0>        -1.0257
     17 S1          5.0545    0.2438   -0.0482 S.o2      1 <0>         2.6181
     18 O3          5.1006    0.9327   -1.2902 O.2       1 <0>        -1.0160
     19 O4          5.1267    0.9186    1.2003 O.2       1 <0>        -1.0178
     20 C13         6.3769   -0.9204   -0.0686 C.2       1 <0>        -0.6500
     21 C14         7.0099   -1.4741   -1.1313 C.2       1 <0>        -0.0460
     22 C15         8.0334   -2.3761   -0.9069 C.2       1 <0>        -0.1308
     23 C16         8.3733   -2.6798    0.3705 C.2       1 <0>        -0.1759
     24 S2          7.2354   -1.6705    1.3052 S.3       1 <0>         0.2118
     25 Br1         9.7106   -3.8601    0.9984 Br        1 <0>         0.0338
     26 H1         -0.9607    1.8975    0.0259 H         1 <0>         0.1073
     27 H2          1.1446    3.1696    0.0081 H         1 <0>         0.1072
     28 H3          3.3027    1.9985   -0.0195 H         1 <0>         0.1031
     29 H4         -0.9254   -0.5573    0.0079 H         1 <0>         0.1067
     30 H5         -0.7537   -2.3847   -0.0034 H         1 <0>         0.3941
     31 H6          0.6334   -4.6672   -0.9214 H         1 <0>         0.0938
     32 H7          0.6517   -4.6778    0.8584 H         1 <0>         0.0790
     33 H8         -1.7378   -5.0051   -2.1295 H         1 <0>         0.1501
     34 H9         -4.1225   -5.9025   -1.2332 H         1 <0>         0.1476
     35 H10        -4.0181   -5.8751    1.3850 H         1 <0>         0.2016
     36 H11         6.7188   -1.2149   -2.1385 H         1 <0>         0.1517
     37 H12         8.5540   -2.8321   -1.7361 H         1 <0>         0.1444
@<TRIPOS>BOND
     1    1    6 ar
     2    1    2 ar
     3    1   26 1
     4    2    3 ar
     5    2   27 1
     6    3    4 ar
     7    3   28 1
     8    4    5 ar
     9    4   16 1
    10    5    6 ar
    11    5    7 1
    12    6   29 1
    13    7    8 2
    14    7    9 am
    15    9   10 1
    16    9   30 1
    17   10   11 1
    18   10   31 1
    19   10   32 1
    20   11   15 1
    21   11   12 2
    22   12   13 1
    23   12   33 1
    24   13   14 2
    25   13   34 1
    26   14   15 1
    27   14   35 1
    28   16   17 1
    29   17   18 2
    30   17   19 2
    31   17   20 1
    32   20   24 1
    33   20   21 2
    34   21   22 1
    35   21   36 1
    36   22   23 2
    37   22   37 1
    38   23   24 1
    39   23   25 1
@<TRIPOS>MOLECULE
ZINC40144192
   46    49     0     0     0
SMALL
USER_CHARGES

@<TRIPOS>ATOM
      1 C1         -0.0187    1.5258    0.0104 C.3       1 <0>        -0.1637
      2 C2          0.0021   -0.0041    0.0020 C.3       1 <0>         0.2235
      3 H1          0.5293   -0.3651    0.8851 H         1 <0>         0.1202
      4 C3          0.7074   -0.4901   -1.2379 C.2       1 <0>         0.0351
      5 C4          1.9781   -0.9132   -1.2815 C.2       1 <0>        -0.1960
      6 C5          2.2373   -1.2866   -2.6772 C.ar      1 <0>        -0.1283
      7 C6          3.3425   -1.7882   -3.3629 C.ar      1 <0>        -0.0713
      8 C7          3.2525   -2.0362   -4.7046 C.ar      1 <0>        -0.1373
      9 C8          2.0692   -1.7912   -5.3863 C.ar      1 <0>        -0.0960
     10 C9          0.9660   -1.2952   -4.7251 C.ar      1 <0>        -0.1052
     11 C10         1.0362   -1.0368   -3.3617 C.ar      1 <0>         0.0542
     12 O1          0.1513   -0.5674   -2.4595 O.3       1 <0>        -0.1877
     13 N1         -1.3723   -0.5112    0.0124 N.am      1 <0>        -0.7304
     14 C11        -2.0286   -0.6552    1.1807 C.2       1 <0>         0.5716
     15 O2         -1.4802   -0.3644    2.2258 O.2       1 <0>        -0.5395
     16 C12        -3.4158   -1.1670    1.1912 C.ar      1 <0>        -0.1052
     17 C13        -4.0459   -1.5071   -0.0073 C.ar      1 <0>        -0.1919
     18 C14        -5.3405   -1.9845    0.0050 C.ar      1 <0>        -0.0707
     19 C15        -6.0183   -2.1274    1.2014 C.ar      1 <0>        -0.2414
     20 C16        -5.4001   -1.7917    2.4000 C.ar      1 <0>         0.2712
     21 C17        -4.0970   -1.3170    2.3988 C.ar      1 <0>        -0.1097
     22 N2         -6.0893   -1.9376    3.6064 N.2       1 <0>        -1.0847
     23 S1         -7.6431   -2.5105    3.6083 S.o2      1 <0>         2.6329
     24 O3         -8.4381   -1.5303    2.9553 O.2       1 <0>        -1.0205
     25 O4         -7.5793   -3.8589    3.1645 O.2       1 <0>        -1.0208
     26 C18        -8.1790   -2.5574    5.2862 C.2       1 <0>        -0.6684
     27 C19        -8.8067   -1.5977    6.0089 C.2       1 <0>        -0.0444
     28 C20        -9.1373   -1.8587    7.3255 C.2       1 <0>        -0.1806
     29 C21        -8.8240   -3.0666    7.8549 C.2       1 <0>        -0.1685
     30 S2         -8.0433   -3.8841    6.4731 S.3       1 <0>         0.1407
     31 H2          1.0039    1.9031    0.0027 H         1 <0>         0.0692
     32 H3         -0.5459    1.8868   -0.8726 H         1 <0>         0.0630
     33 H4         -0.5289    1.8773    0.9072 H         1 <0>         0.0780
     34 H5          2.6720   -0.9684   -0.4557 H         1 <0>         0.1611
     35 H6          4.2660   -1.9799   -2.8368 H         1 <0>         0.1269
     36 H7          4.1079   -2.4248   -5.2371 H         1 <0>         0.1282
     37 H8          2.0119   -1.9908   -6.4462 H         1 <0>         0.1342
     38 H9          0.0499   -1.1077   -5.2653 H         1 <0>         0.1328
     39 H10        -1.8100   -0.7432   -0.8215 H         1 <0>         0.4065
     40 H11        -3.5202   -1.3962   -0.9442 H         1 <0>         0.1052
     41 H12        -5.8261   -2.2470   -0.9233 H         1 <0>         0.1098
     42 H13        -7.0316   -2.5009    1.2046 H         1 <0>         0.1012
     43 H14        -3.6132   -1.0597    3.3294 H         1 <0>         0.1282
     44 H15        -9.0446   -0.6433    5.5630 H         1 <0>         0.1432
     45 H16        -9.6373   -1.1112    7.9235 H         1 <0>         0.1366
     46 H17        -9.0038   -3.4392    8.8525 H         1 <0>         0.1885
@<TRIPOS>BOND
     1    1    2 1
     2    1   31 1
     3    1   32 1
     4    1   33 1
     5    2    3 1
     6    2    4 1
     7    2   13 1
     8    4   12 1
     9    4    5 2
    10    5    6 1
    11    5   34 1
    12    6   11 ar
    13    6    7 ar
    14    7    8 ar
    15    7   35 1
    16    8    9 ar
    17    8   36 1
    18    9   10 ar
    19    9   37 1
    20   10   11 ar
    21   10   38 1
    22   11   12 1
    23   13   14 am
    24   13   39 1
    25   14   15 2
    26   14   16 1
    27   16   21 ar
    28   16   17 ar
    29   17   18 ar
    30   17   40 1
    31   18   19 ar
    32   18   41 1
    33   19   20 ar
    34   19   42 1
    35   20   21 ar
    36   20   22 1
    37   21   43 1
    38   22   23 1
    39   23   24 2
    40   23   25 2
    41   23   26 1
    42   26   30 1
    43   26   27 2
    44   27   28 1
    45   27   44 1
    46   28   29 2
    47   28   45 1
    48   29   30 1
    49   29   46 1
@<TRIPOS>MOLECULE
ZINC60366168
   54    56     0     0     0
SMALL
USER_CHARGES

@<TRIPOS>ATOM
      1 C1         -0.0184    1.5028    0.0103 C.3       1 <0>        -0.0813
      2 C2          0.0021   -0.0041    0.0020 C.ar      1 <0>        -0.1341
      3 C3          0.0057   -0.6864   -1.2003 C.ar      1 <0>        -0.0897
      4 C4          0.0249   -2.0660   -1.2161 C.ar      1 <0>        -0.1913
      5 C5          0.0401   -2.7778   -0.0151 C.ar      1 <0>        -0.0979
      6 C6          0.0365   -2.0898    1.1979 C.ar      1 <0>        -0.1898
      7 C7          0.0230   -0.7031    1.2031 C.ar      1 <0>         0.2763
      8 N1          0.0250   -0.0089    2.4155 N.2       1 <0>        -1.0934
      9 S1          0.0499   -0.8418    3.8465 S.o2      1 <0>         2.5232
     10 O1         -1.1749   -1.5620    3.8682 O.2       1 <0>        -1.0273
     11 O2          1.2940   -1.5284    3.8449 O.2       1 <0>        -1.0269
     12 C8          0.0446    0.4387    5.1314 C.3       1 <0>        -0.6378
     13 C9          0.0597   -4.2562   -0.0292 C.2       1 <0>         0.5611
     14 O3          0.0730   -4.8739    1.0176 O.2       1 <0>        -0.5389
     15 N2          0.0628   -4.9189   -1.2028 N.am      1 <0>        -0.7325
     16 C10         0.0821   -6.3837   -1.2168 C.3       1 <0>         0.1321
     17 C11         0.0817   -6.8799   -2.6641 C.3       1 <0>        -0.1122
     18 H1          0.9001   -6.4329   -3.2285 H         1 <0>         0.0899
     19 C12        -1.2830   -6.6003   -3.3475 C.3       1 <0>        -0.1272
     20 C13        -1.3572   -7.6955   -4.4322 C.3       1 <0>         0.1355
     21 N3         -0.4584   -8.7825   -4.0172 N.pl3     1 <0>        -0.6846
     22 C14         0.1478   -8.4265   -2.7209 C.3       1 <0>         0.1417
     23 C15        -0.2187   -9.9582   -4.7321 C.ar      1 <0>         0.2039
     24 C16         0.8161  -10.0114   -5.6573 C.ar      1 <0>        -0.1132
     25 C17         1.0505  -11.1763   -6.3629 C.ar      1 <0>        -0.0349
     26 C18         0.2552  -12.2888   -6.1480 C.ar      1 <0>        -0.1121
     27 C19        -0.7752  -12.2381   -5.2277 C.ar      1 <0>        -0.1046
     28 C20        -1.0108  -11.0784   -4.5152 C.ar      1 <0>        -0.0859
     29 C21        -2.1301  -11.0268   -3.5074 C.3       1 <0>        -0.1098
     30 Cl1         2.3428  -11.2444   -7.5200 Cl        1 <0>        -0.0736
     31 H2          1.0042    1.8801    0.0026 H         1 <0>         0.0491
     32 H3         -0.5455    1.8639   -0.8728 H         1 <0>         0.0387
     33 H4         -0.5286    1.8543    0.9071 H         1 <0>         0.0735
     34 H5         -0.0068   -0.1377   -2.1305 H         1 <0>         0.1087
     35 H6          0.0277   -2.5953   -2.1575 H         1 <0>         0.1024
     36 H7          0.0479   -2.6350    2.1301 H         1 <0>         0.1162
     37 H8         -0.8548    1.0469    5.0345 H         1 <0>         0.1146
     38 H9          0.0603   -0.0327    6.1141 H         1 <0>         0.1006
     39 H10         0.9250    1.0712    5.0177 H         1 <0>         0.1146
     40 H11         0.0522   -4.4260   -2.0382 H         1 <0>         0.3995
     41 H12         0.9794   -6.7401   -0.7108 H         1 <0>         0.0674
     42 H13        -0.8004   -6.7637   -0.7022 H         1 <0>         0.0680
     43 H14        -2.1005   -6.7076   -2.6346 H         1 <0>         0.0786
     44 H15        -1.2918   -5.6085   -3.7996 H         1 <0>         0.0809
     45 H16        -2.3780   -8.0689   -4.5127 H         1 <0>         0.0495
     46 H17        -1.0316   -7.2908   -5.3905 H         1 <0>         0.0490
     47 H18         1.1836   -8.7637   -2.6804 H         1 <0>         0.0635
     48 H19        -0.4257   -8.8611   -1.9021 H         1 <0>         0.0556
     49 H20         1.4364   -9.1434   -5.8253 H         1 <0>         0.1331
     50 H21         0.4398  -13.1981   -6.7008 H         1 <0>         0.1322
     51 H22        -1.3939  -13.1077   -5.0624 H         1 <0>         0.1322
     52 H23        -3.0464  -10.6993   -3.9986 H         1 <0>         0.0696
     53 H24        -2.2809  -12.0184   -3.0809 H         1 <0>         0.0643
     54 H25        -1.8725  -10.3252   -2.7140 H         1 <0>         0.0735
@<TRIPOS>BOND
     1    1    2 1
     2    1   31 1
     3    1   32 1
     4    1   33 1
     5    2    7 ar
     6    2    3 ar
     7    3    4 ar
     8    3   34 1
     9    4    5 ar
    10    4   35 1
    11    5    6 ar
    12    5   13 1
    13    6    7 ar
    14    6   36 1
    15    7    8 1
    16    8    9 1
    17    9   10 2
    18    9   11 2
    19    9   12 1
    20   12   37 1
    21   12   38 1
    22   12   39 1
    23   13   14 2
    24   13   15 am
    25   15   16 1
    26   15   40 1
    27   16   17 1
    28   16   41 1
    29   16   42 1
    30   17   18 1
    31   17   22 1
    32   17   19 1
    33   19   20 1
    34   19   43 1
    35   19   44 1
    36   20   21 1
    37   20   45 1
    38   20   46 1
    39   21   22 1
    40   21   23 1
    41   22   47 1
    42   22   48 1
    43   23   28 ar
    44   23   24 ar
    45   24   25 ar
    46   24   49 1
    47   25   26 ar
    48   25   30 1
    49   26   27 ar
    50   26   50 1
    51   27   28 ar
    52   27   51 1
    53   28   29 1
    54   29   52 1
    55   29   53 1
    56   29   54 1
@<TRIPOS>MOLECULE
ZINC05636305
   41    45     0     0     0
SMALL
USER_CHARGES
benzo[1,3]dioxol-5-yl-chloro-BLAHcarboxylic acid
@<TRIPOS>ATOM
      1 C1          6.3723    6.5693   -0.6633 C.ar      1 <0>        -0.0994
      2 C2          7.5376    7.3086   -0.7514 C.ar      1 <0>        -0.0945
      3 C3          8.4410    7.3060    0.2984 C.ar      1 <0>         0.0230
      4 C4          8.1697    6.5615    1.4442 C.ar      1 <0>         0.0337
      5 C5          6.9982    5.8275    1.5275 C.ar      1 <0>        -0.0877
      6 C6          6.1007    5.8348    0.4755 C.ar      1 <0>        -0.0479
      7 C7          4.8266    5.0353    0.5685 C.3       1 <0>         0.1419
      8 H1          4.6092    4.8185    1.6144 H         1 <0>         0.1022
      9 C8          4.9904    3.7230   -0.2013 C.3       1 <0>        -0.1276
     10 H2          5.2440    3.8793   -1.2499 H         1 <0>         0.0894
     11 C9          6.0186    2.8454    0.5667 C.3       1 <0>        -0.0822
     12 C10         5.1883    2.1959    1.6560 C.2       1 <0>        -0.2239
     13 C11         3.9190    2.2055    1.3339 C.2       1 <0>        -0.0726
     14 C12         3.7191    2.8687   -0.0096 C.3       1 <0>        -0.0094
     15 H3          3.6576    2.1125   -0.7922 H         1 <0>         0.1238
     16 C13         2.4818    3.7165    0.0041 C.ar      1 <0>        -0.0670
     17 C14         1.2381    3.0664    0.0067 C.ar      1 <0>        -0.0982
     18 C15         0.0570    3.8057    0.0220 C.ar      1 <0>        -0.0776
     19 C16         0.1096    5.1844    0.0284 C.ar      1 <0>        -0.1207
     20 C17         1.3316    5.8275    0.0184 C.ar      1 <0>        -0.0322
     21 C18         2.5219    5.0963    0.0030 C.ar      1 <0>         0.0934
     22 N1          3.7244    5.8049   -0.0096 N.pl3     1 <0>        -0.6192
     23 Cl1         1.3894    7.5625    0.0255 Cl        1 <0>        -0.0764
     24 C19         1.1809    1.5907   -0.0007 C.2       1 <0>         0.4872
     25 O1          2.2085    0.9430   -0.0140 O.co2     1 <0>        -0.6143
     26 O2          9.2020    6.7216    2.3229 O.3       1 <0>        -0.3094
     27 C20         9.9111    7.8915    1.8738 C.3       1 <0>         0.2135
     28 O3          9.6431    7.9323    0.4597 O.3       1 <0>        -0.3114
     29 H4          5.6710    6.5690   -1.4847 H         1 <0>         0.1349
     30 H5          7.7454    7.8846   -1.6410 H         1 <0>         0.1345
     31 H6          6.7853    5.2494    2.4145 H         1 <0>         0.1373
     32 H7          6.4456    2.0895   -0.0924 H         1 <0>         0.0702
     33 H8          6.8034    3.4650    1.0005 H         1 <0>         0.0670
     34 H9          5.5879    1.7825    2.5702 H         1 <0>         0.1191
     35 H10         3.1263    1.7966    1.9428 H         1 <0>         0.1219
     36 H11        -0.8975    3.3005    0.0291 H         1 <0>         0.1395
     37 H12        -0.8041    5.7601    0.0409 H         1 <0>         0.1292
     38 H13         3.9509    6.1161   -0.9423 H         1 <0>         0.3493
     39 H14         9.5239    8.7854    2.3630 H         1 <0>         0.0820
     40 H15        10.9799    7.7867    2.0605 H         1 <0>         0.1292
     41 O4         -0.0110    0.9628    0.0073 O.co2     1 <0>        -0.7507
@<TRIPOS>BOND
     1    1    6 ar
     2    1    2 ar
     3    1   29 1
     4    2    3 ar
     5    2   30 1
     6    3   28 1
     7    3    4 ar
     8    4    5 ar
     9    4   26 1
    10    5    6 ar
    11    5   31 1
    12    6    7 1
    13    7    8 1
    14    7   22 1
    15    7    9 1
    16    9   10 1
    17    9   14 1
    18    9   11 1
    19   11   12 1
    20   11   32 1
    21   11   33 1
    22   12   13 2
    23   12   34 1
    24   13   14 1
    25   13   35 1
    26   14   15 1
    27   14   16 1
    28   16   21 ar
    29   16   17 ar
    30   17   18 ar
    31   17   24 1
    32   18   19 ar
    33   18   36 1
    34   19   20 ar
    35   19   37 1
    36   20   21 ar
    37   20   23 1
    38   21   22 1
    39   22   38 1
    40   24   25 2
    41   24   41 1
    42   26   27 1
    43   27   28 1
    44   27   39 1
    45   27   40 1
@<TRIPOS>MOLECULE
ZINC20275665
   57    60     0     0     0
SMALL
USER_CHARGES
2-[(N'E)-N'-[(5S,8S,9R,10R,13R,14R)-10,13-dimethyl-1,2,3,4,5,6,7,8,9,11,12,14,15,16-tetradecahydrocyclopenta[a]phenanthren-17-ylidene]hydrazino]-2-oxo-acetic acid
@<TRIPOS>ATOM
      1 C1          2.1648   -0.4836    3.3891 C.3       1 <0>        -0.1520
      2 C2          2.2721    1.0309    3.5775 C.3       1 <0>        -0.0417
      3 C3          1.6331    1.4265    4.9104 C.3       1 <0>        -0.1123
      4 C4          2.3618    0.7219    6.0561 C.3       1 <0>        -0.1217
      5 C5          3.8349    1.1356    6.0548 C.3       1 <0>        -0.1190
      6 C6          4.4736    0.7394    4.7246 C.3       1 <0>        -0.1166
      7 C7          3.7460    1.4425    3.5773 C.3       1 <0>        -0.0738
      8 H1          3.8218    2.5319    3.7096 H         1 <0>         0.0663
      9 C8          4.3871    1.0459    2.2462 C.3       1 <0>        -0.1157
     10 C9          3.6602    1.7512    1.0991 C.3       1 <0>        -0.1153
     11 C10         2.1884    1.3358    1.0968 C.3       1 <0>        -0.0807
     12 H2          2.1333    0.2502    0.9279 H         1 <0>         0.0828
     13 C11         1.5471    1.7404    2.4332 C.3       1 <0>        -0.0658
     14 H3          1.6369    2.8302    2.5524 H         1 <0>         0.0651
     15 C12         0.0610    1.4002    2.4662 C.3       1 <0>        -0.1195
     16 C13        -0.6796    2.0191    1.2818 C.3       1 <0>        -0.1045
     17 C14        -0.0187    1.5258    0.0104 C.3       1 <0>         0.0135
     18 C15         1.4367    2.0669   -0.0006 C.3       1 <0>        -0.0863
     19 H4          1.6262    3.1271    0.2231 H         1 <0>         0.0797
     20 C16         1.8577    1.7574   -1.4427 C.3       1 <0>        -0.1100
     21 C17         0.5831    2.1243   -2.2510 C.3       1 <0>        -0.1227
     22 C18        -0.5908    2.0292   -1.2816 C.2       1 <0>         0.0791
     23 N1         -1.8144    2.3193   -1.5217 N.2       1 <0>        -0.2129
     24 N2         -2.1890    2.7807   -2.7905 N.am      1 <0>        -0.5825
     25 C19        -3.4771    3.0862   -3.0433 C.2       1 <0>         0.4944
     26 O1         -4.3129    2.9615   -2.1716 O.2       1 <0>        -0.5059
     27 C20        -3.8761    3.5777   -4.3949 C.2       1 <0>         0.4713
     28 O2         -3.0412    3.7023   -5.2656 O.co2     1 <0>        -0.6131
     29 O3         -5.1622    3.8826   -4.6473 O.co2     1 <0>        -0.7027
     30 C21         0.0021   -0.0041    0.0020 C.3       1 <0>        -0.1434
     31 H5          1.1052   -0.7789    3.3893 H         1 <0>         0.0566
     32 H6          2.6877   -0.9934    4.2117 H         1 <0>         0.0570
     33 H7          2.6244   -0.7673    2.4308 H         1 <0>         0.0601
     34 H8          1.7080    2.5158    5.0439 H         1 <0>         0.0594
     35 H9          0.5741    1.1288    4.9120 H         1 <0>         0.0663
     36 H10         1.9017    1.0072    7.0137 H         1 <0>         0.0569
     37 H11         2.2868   -0.3675    5.9234 H         1 <0>         0.0640
     38 H12         3.9099    2.2250    6.1877 H         1 <0>         0.0589
     39 H13         4.3588    0.6288    6.8786 H         1 <0>         0.0568
     40 H14         5.5325    1.0372    4.7232 H         1 <0>         0.0571
     41 H15         4.3989   -0.3500    4.5920 H         1 <0>         0.0643
     42 H16         5.4463    1.3428    2.2465 H         1 <0>         0.0572
     43 H17         4.3118   -0.0434    2.1131 H         1 <0>         0.0644
     44 H18         3.7337    2.8405    1.2332 H         1 <0>         0.0589
     45 H19         4.1229    1.4675    0.1423 H         1 <0>         0.0620
     46 H20        -0.0662    0.3083    2.4251 H         1 <0>         0.0684
     47 H21        -0.3830    1.7863    3.3956 H         1 <0>         0.0630
     48 H22        -1.7349    1.7099    1.3072 H         1 <0>         0.0714
     49 H23        -0.6172    3.1156    1.3428 H         1 <0>         0.0625
     50 H24         2.7266    2.3759   -1.7117 H         1 <0>         0.0684
     51 H25         2.1249    0.6936   -1.5264 H         1 <0>         0.0710
     52 H26         0.6820    3.1454   -2.6479 H         1 <0>         0.0799
     53 H27         0.4613    1.4171   -3.0847 H         1 <0>         0.0800
     54 H28        -1.4318    2.8936   -3.5803 H         1 <0>         0.4118
     55 H29         0.4823   -0.3592   -0.9218 H         1 <0>         0.0574
     56 H30        -1.0287   -0.3851    0.0493 H         1 <0>         0.0592
     57 H31         0.5677   -0.3679    0.8725 H         1 <0>         0.0736
@<TRIPOS>BOND
     1    1    2 1
     2    1   31 1
     3    1   32 1
     4    1   33 1
     5    2    7 1
     6    2   13 1
     7    2    3 1
     8    3    4 1
     9    3   34 1
    10    3   35 1
    11    4    5 1
    12    4   36 1
    13    4   37 1
    14    5    6 1
    15    5   38 1
    16    5   39 1
    17    6    7 1
    18    6   40 1
    19    6   41 1
    20    7    8 1
    21    7    9 1
    22    9   10 1
    23    9   42 1
    24    9   43 1
    25   10   11 1
    26   10   44 1
    27   10   45 1
    28   11   12 1
    29   11   18 1
    30   11   13 1
    31   13   14 1
    32   13   15 1
    33   15   16 1
    34   15   46 1
    35   15   47 1
    36   16   17 1
    37   16   48 1
    38   16   49 1
    39   17   22 1
    40   17   18 1
    41   17   30 1
    42   18   19 1
    43   18   20 1
    44   20   21 1
    45   20   50 1
    46   20   51 1
    47   21   22 1
    48   21   52 1
    49   21   53 1
    50   22   23 2
    51   23   24 1
    52   24   25 am
    53   24   54 1
    54   25   26 2
    55   25   27 1
    56   27   28 2
    57   27   29 1
    58   30   55 1
    59   30   56 1
    60   30   57 1
@<TRIPOS>MOLECULE
ZINC37304919
   35    36     0     0     0
SMALL
USER_CHARGES

@<TRIPOS>ATOM
      1 C1         -0.0184    1.5028    0.0103 C.3       1 <0>        -0.0958
      2 C2          0.0021   -0.0041    0.0020 C.ar      1 <0>        -0.1727
      3 C3          0.0057   -0.6862   -1.2007 C.ar      1 <0>        -0.0958
      4 C4          0.0239   -2.0655   -1.2171 C.ar      1 <0>        -0.1336
      5 C5          0.0392   -2.7782   -0.0152 C.ar      1 <0>        -0.0943
      6 C6          0.0361   -2.0892    1.1990 C.ar      1 <0>        -0.1529
      7 C7          0.0230   -0.7029    1.2034 C.ar      1 <0>         0.1932
      8 N1          0.0255   -0.0082    2.4156 N.pl3     1 <0>        -0.7481
      9 C8          0.0475   -0.7446    3.6819 C.3       1 <0>         0.1855
     10 H1         -0.5308   -1.6627    3.5784 H         1 <0>         0.0941
     11 C9          1.4928   -1.0906    4.0456 C.3       1 <0>        -0.1626
     12 C10        -0.5539    0.1080    4.7694 C.ar      1 <0>        -0.0593
     13 C11        -0.2829    1.4628    4.8147 C.ar      1 <0>        -0.1097
     14 C12        -0.8344    2.2450    5.8120 C.ar      1 <0>        -0.0828
     15 C13        -1.6572    1.6721    6.7645 C.ar      1 <0>        -0.1031
     16 C14        -1.9280    0.3167    6.7189 C.ar      1 <0>        -0.0813
     17 C15        -1.3808   -0.4639    5.7181 C.ar      1 <0>        -0.1041
     18 I1         -2.4926    2.8572    8.2767 I         1 <0>        -0.0504
     19 C16         0.0582   -4.2536   -0.0294 C.2       1 <0>         0.5190
     20 O1          0.0606   -4.8549   -1.0942 O.co2     1 <0>        -0.6872
     21 O2          0.0717   -4.8751    1.0238 O.co2     1 <0>        -0.6891
     22 H2          1.0042    1.8801    0.0026 H         1 <0>         0.0572
     23 H3         -0.5455    1.8639   -0.8728 H         1 <0>         0.0600
     24 H4         -0.5286    1.8543    0.9071 H         1 <0>         0.0506
     25 H5         -0.0062   -0.1372   -2.1307 H         1 <0>         0.1116
     26 H6          0.0259   -2.5944   -2.1588 H         1 <0>         0.1218
     27 H7          0.0475   -2.6341    2.1314 H         1 <0>         0.1255
     28 H8          0.0126    0.9617    2.4188 H         1 <0>         0.3916
     29 H9          2.0711   -0.1724    4.1491 H         1 <0>         0.0554
     30 H10         1.5092   -1.6385    4.9877 H         1 <0>         0.0629
     31 H11         1.9278   -1.7072    3.2590 H         1 <0>         0.0716
     32 H12         0.3599    1.9100    4.0710 H         1 <0>         0.1285
     33 H13        -0.6224    3.3034    5.8476 H         1 <0>         0.1282
     34 H14        -2.5706   -0.1309    7.4627 H         1 <0>         0.1301
     35 H15        -1.5962   -1.5216    5.6796 H         1 <0>         0.1362
@<TRIPOS>BOND
     1    1    2 1
     2    1   22 1
     3    1   23 1
     4    1   24 1
     5    2    7 ar
     6    2    3 ar
     7    3    4 ar
     8    3   25 1
     9    4    5 ar
    10    4   26 1
    11    5    6 ar
    12    5   19 1
    13    6    7 ar
    14    6   27 1
    15    7    8 1
    16    8    9 1
    17    8   28 1
    18    9   10 1
    19    9   11 1
    20    9   12 1
    21   11   29 1
    22   11   30 1
    23   11   31 1
    24   12   17 ar
    25   12   13 ar
    26   13   14 ar
    27   13   32 1
    28   14   15 ar
    29   14   33 1
    30   15   16 ar
    31   15   18 1
    32   16   17 ar
    33   16   34 1
    34   17   35 1
    35   19   20 2
    36   19   21 1
@<TRIPOS>MOLECULE
ZINC43681894
   64    67     0     0     0
SMALL
USER_CHARGES

@<TRIPOS>ATOM
      1 C1         -1.4288    0.3289   -0.2177 C.3       1 <0>        -0.1457
      2 C2          0.0826    0.3257    0.0207 C.3       1 <0>        -0.0867
      3 H1          0.4500    1.3518    0.0368 H         1 <0>         0.0613
      4 C3          0.7747   -0.4463   -1.1044 C.3       1 <0>        -0.0880
      5 C4          0.3691    0.1474   -2.4549 C.3       1 <0>        -0.1855
      6 C5          1.0508   -0.6130   -3.5630 C.2       1 <0>         0.4882
      7 O1          1.7924   -1.5436   -3.2973 O.co2     1 <0>        -0.6981
      8 O2          0.8609   -0.2977   -4.7253 O.co2     1 <0>        -0.7131
      9 C6          0.3859   -0.3457    1.3616 C.3       1 <0>        -0.0650
     10 H2         -0.1330    0.1708    2.1692 H         1 <0>         0.0636
     11 C7         -0.0291   -1.8404    1.3226 C.3       1 <0>        -0.1195
     12 C8          1.2836   -2.6623    1.4639 C.3       1 <0>        -0.1124
     13 C9          2.3505   -1.6883    0.9598 C.3       1 <0>        -0.0993
     14 H3          2.3108   -1.6109   -0.1267 H         1 <0>         0.1075
     15 C10         1.8811   -0.3584    1.6187 C.3       1 <0>        -0.0299
     16 C11         2.7245    0.7575    1.1403 C.2       1 <0>        -0.1281
     17 H4          2.3146    1.7548    1.0803 H         1 <0>         0.1024
     18 C12         3.9731    0.5393    0.7877 C.2       1 <0>        -0.1430
     19 H5          4.5680    1.3896    0.4884 H         1 <0>         0.0984
     20 C13         4.6196   -0.7979    0.7742 C.3       1 <0>        -0.0525
     21 H6          4.7275   -1.0824   -0.2724 H         1 <0>         0.0785
     22 C14         3.7697   -1.9072    1.4183 C.3       1 <0>        -0.0743
     23 H7          3.8196   -1.7971    2.5015 H         1 <0>         0.0754
     24 C15         4.3438   -3.2653    1.0344 C.3       1 <0>        -0.1143
     25 C16         5.7782   -3.3534    1.5712 C.3       1 <0>        -0.1164
     26 C17         6.6374   -2.2307    0.9884 C.3       1 <0>        -0.0708
     27 H8          7.6427   -2.2899    1.4056 H         1 <0>         0.0733
     28 C18         6.0131   -0.8372    1.3787 C.3       1 <0>        -0.0369
     29 C19         6.8780    0.2786    0.7949 C.3       1 <0>        -0.1013
     30 C20         6.9824    0.1107   -0.7220 C.3       1 <0>        -0.1546
     31 C21         7.6166   -1.2452   -1.0393 C.3       1 <0>         0.1056
     32 H9          7.6946   -1.3662   -2.1198 H         1 <0>         0.0463
     33 C22         6.7079   -2.3863   -0.5324 C.3       1 <0>        -0.1130
     34 O3          8.9201   -1.3095   -0.4572 O.3       1 <0>        -0.5635
     35 C23         5.9161   -0.6674    2.8961 C.3       1 <0>        -0.1390
     36 C24         2.1006   -0.4837    3.1277 C.3       1 <0>        -0.1423
     37 H10        -1.9310    0.7760    0.6403 H         1 <0>         0.0422
     38 H11        -1.6541    0.9082   -1.1131 H         1 <0>         0.0553
     39 H12        -1.7779   -0.6952   -0.3500 H         1 <0>         0.0527
     40 H13         1.8555   -0.3719   -0.9846 H         1 <0>         0.0702
     41 H14         0.4759   -1.4938   -1.0635 H         1 <0>         0.0603
     42 H15        -0.7117    0.0730   -2.5746 H         1 <0>         0.0543
     43 H16         0.6679    1.1949   -2.4957 H         1 <0>         0.0488
     44 H17        -0.7017   -2.0639    2.1508 H         1 <0>         0.0535
     45 H18        -0.5140   -2.0697    0.3737 H         1 <0>         0.0733
     46 H19         1.4634   -2.9262    2.5061 H         1 <0>         0.0604
     47 H20         1.2494   -3.5547    0.8390 H         1 <0>         0.0625
     48 H21         3.7379   -4.0575    1.4742 H         1 <0>         0.0605
     49 H22         4.3509   -3.3674   -0.0508 H         1 <0>         0.0671
     50 H23         5.7622   -3.2679    2.6577 H         1 <0>         0.0586
     51 H24         6.2077   -4.3163    1.2949 H         1 <0>         0.0562
     52 H25         6.4264    1.2442    1.0226 H         1 <0>         0.0602
     53 H26         7.8745    0.2325    1.2342 H         1 <0>         0.0630
     54 H27         5.9865    0.1584   -1.1626 H         1 <0>         0.0797
     55 H28         7.6016    0.9073   -1.1344 H         1 <0>         0.0596
     56 H29         7.1440   -3.3545   -0.7783 H         1 <0>         0.0674
     57 H30         5.7031   -2.3247   -0.9504 H         1 <0>         0.0923
     58 H31         9.5277   -0.6286   -0.7770 H         1 <0>         0.3732
     59 H32         5.3157   -1.4753    3.3144 H         1 <0>         0.0604
     60 H33         6.9158   -0.6957    3.3296 H         1 <0>         0.0473
     61 H34         5.4475    0.2896    3.1254 H         1 <0>         0.0547
     62 H35         1.7591   -1.4625    3.4645 H         1 <0>         0.0575
     63 H36         3.1617   -0.3724    3.3510 H         1 <0>         0.0563
     64 H37         1.5374    0.2946    3.6426 H         1 <0>         0.0452
@<TRIPOS>BOND
     1    1    2 1
     2    1   37 1
     3    1   38 1
     4    1   39 1
     5    2    3 1
     6    2    4 1
     7    2    9 1
     8    4    5 1
     9    4   40 1
    10    4   41 1
    11    5    6 1
    12    5   42 1
    13    5   43 1
    14    6    7 2
    15    6    8 1
    16    9   10 1
    17    9   15 1
    18    9   11 1
    19   11   12 1
    20   11   44 1
    21   11   45 1
    22   12   13 1
    23   12   46 1
    24   12   47 1
    25   13   14 1
    26   13   22 1
    27   13   15 1
    28   15   16 1
    29   15   36 1
    30   16   17 1
    31   16   18 2
    32   18   19 1
    33   18   20 1
    34   20   21 1
    35   20   28 1
    36   20   22 1
    37   22   23 1
    38   22   24 1
    39   24   25 1
    40   24   48 1
    41   24   49 1
    42   25   26 1
    43   25   50 1
    44   25   51 1
    45   26   27 1
    46   26   33 1
    47   26   28 1
    48   28   29 1
    49   28   35 1
    50   29   30 1
    51   29   52 1
    52   29   53 1
    53   30   31 1
    54   30   54 1
    55   30   55 1
    56   31   32 1
    57   31   33 1
    58   31   34 1
    59   33   56 1
    60   33   57 1
    61   34   58 1
    62   35   59 1
    63   35   60 1
    64   35   61 1
    65   36   62 1
    66   36   63 1
    67   36   64 1
@<TRIPOS>MOLECULE
ZINC65159256
   42    45     0     0     0
SMALL
USER_CHARGES

@<TRIPOS>ATOM
      1 C1          0.0486    2.0111   -0.0661 C.3       1 <0>        -0.0736
      2 C2         -0.0573    0.5098    0.0105 C.2       1 <0>         0.1113
      3 C3         -0.1098   -0.2534   -1.1075 C.2       1 <0>        -0.2700
      4 S1         -0.2257   -1.8853   -0.3925 S.3       1 <0>         0.0056
      5 C4         -0.1958   -1.4324    1.2281 C.2       1 <0>         0.2785
      6 S2         -0.2698   -2.4638    2.6548 S.3       1 <0>        -0.7519
      7 N1         -0.0976   -0.1206    1.1709 N.2       1 <0>        -0.5748
      8 C5         -0.0792    0.1609   -2.5561 C.3       1 <0>        -0.0233
      9 C6          1.3483    0.1996   -3.0375 C.2       1 <0>         0.5188
     10 O1          2.2519   -0.0817   -2.2790 O.2       1 <0>        -0.5062
     11 N2          1.6209    0.5467   -4.3110 N.am      1 <0>        -0.6158
     12 C7          0.5372    0.7800   -5.2775 C.3       1 <0>         0.1070
     13 C8          0.5645    2.2508   -5.7104 C.3       1 <0>        -0.0616
     14 C9          1.9878    2.6478   -6.0084 C.2       1 <0>        -0.1603
     15 C10         2.4614    3.7878   -6.7671 C.ar      1 <0>        -0.0997
     16 C11         1.7997    4.8258   -7.4304 C.ar      1 <0>        -0.0661
     17 C12         2.5849    5.7591   -8.0611 C.ar      1 <0>        -0.1522
     18 C13         3.9682    5.6869   -8.0481 C.ar      1 <0>        -0.1024
     19 C14         4.6488    4.6714   -7.3991 C.ar      1 <0>        -0.1317
     20 C15         3.8776    3.7093   -6.7502 C.ar      1 <0>         0.0997
     21 N3          4.2143    2.5993   -6.0302 N.pl3     1 <0>        -0.5786
     22 H1          5.1207    2.3015   -5.8548 H         1 <0>         0.4156
     23 C16         3.0795    1.9701   -5.5925 C.2       1 <0>         0.0641
     24 C17         3.0115    0.7081   -4.7688 C.3       1 <0>         0.2127
     25 C18         3.9454    0.8249   -3.5626 C.3       1 <0>        -0.1432
     26 H2          1.0992    2.3006   -0.0879 H         1 <0>         0.0635
     27 H3         -0.4446    2.3644   -0.9717 H         1 <0>         0.0600
     28 H4         -0.4324    2.4542    0.8059 H         1 <0>         0.0657
     29 H5         -0.6441   -0.5566   -3.1513 H         1 <0>         0.0962
     30 H6         -0.5247    1.1502   -2.6605 H         1 <0>         0.1023
     31 H7          0.6812    0.1406   -6.1485 H         1 <0>         0.0752
     32 H8         -0.4221    0.5544   -4.8118 H         1 <0>         0.0960
     33 H9         -0.0450    2.3792   -6.6049 H         1 <0>         0.0832
     34 H10         0.1723    2.8748   -4.9073 H         1 <0>         0.0770
     35 H11         0.7218    4.8905   -7.4456 H         1 <0>         0.1285
     36 H12         2.1088    6.5752   -8.5842 H         1 <0>         0.1165
     37 H13         4.5350    6.4494   -8.5618 H         1 <0>         0.1189
     38 H14         5.7279    4.6265   -7.3964 H         1 <0>         0.1259
     39 H15         3.3012   -0.1460   -5.3810 H         1 <0>         0.0855
     40 H16         4.0114   -0.1398   -3.0594 H         1 <0>         0.0955
     41 H17         4.9370    1.1279   -3.8988 H         1 <0>         0.0414
     42 H18         3.5532    1.5697   -2.8702 H         1 <0>         0.0666
@<TRIPOS>BOND
     1    1    2 1
     2    1   26 1
     3    1   27 1
     4    1   28 1
     5    2    7 1
     6    2    3 2
     7    3    4 1
     8    3    8 1
     9    4    5 1
    10    5    6 1
    11    5    7 2
    12    8    9 1
    13    8   29 1
    14    8   30 1
    15    9   10 2
    16    9   11 am
    17   11   24 1
    18   11   12 1
    19   12   13 1
    20   12   31 1
    21   12   32 1
    22   13   14 1
    23   13   33 1
    24   13   34 1
    25   14   23 2
    26   14   15 1
    27   15   20 ar
    28   15   16 ar
    29   16   17 ar
    30   16   35 1
    31   17   18 ar
    32   17   36 1
    33   18   19 ar
    34   18   37 1
    35   19   20 ar
    36   19   38 1
    37   20   21 1
    38   21   22 1
    39   21   23 1
    40   23   24 1
    41   24   25 1
    42   24   39 1
    43   25   40 1
    44   25   41 1
    45   25   42 1
@<TRIPOS>MOLECULE
ZINC10790787
   57    60     0     0     0
SMALL
USER_CHARGES
1-(7,8-dimethyl-5-oxo-9-thia-2,4-diazabicyclo[4.3.0]nona-2,7,10-trien-3-yl)ethyl 3-(benzylsulfamoyl)benzoate
@<TRIPOS>ATOM
      1 C1         11.6837   -1.2159    7.1782 C.3       1 <0>        -0.1059
      2 C2         11.5711   -0.6292    5.7946 C.2       1 <0>        -0.0645
      3 C3         12.6073    0.0275    5.2490 C.2       1 <0>        -0.1575
      4 S1         11.9905    0.5152    3.6489 S.3       1 <0>         0.1541
      5 C4         10.3605   -0.1768    3.7600 C.2       1 <0>         0.0938
      6 C5         10.3416   -0.7670    5.0366 C.2       1 <0>        -0.2315
      7 C6          9.1168   -1.4157    5.4009 C.2       1 <0>         0.5570
      8 O1          9.0021   -1.9570    6.4870 O.2       1 <0>        -0.5141
      9 N1          8.0951   -1.4181    4.5246 N.am      1 <0>        -0.6277
     10 H1          7.2635   -1.8553    4.7656 H         1 <0>         0.4222
     11 C7          8.2049   -0.8205    3.3102 C.2       1 <0>         0.4022
     12 N2          9.3094   -0.2255    2.9469 N.2       1 <0>        -0.4573
     13 C8          7.0336   -0.8498    2.3623 C.3       1 <0>         0.1424
     14 H2          6.6108   -1.8541    2.3382 H         1 <0>         0.1220
     15 C9          7.5032   -0.4602    0.9592 C.3       1 <0>        -0.1546
     16 O2          6.0228    0.0902    2.8128 O.3       1 <0>        -0.3424
     17 C10         4.7407   -0.2053    2.5240 C.2       1 <0>         0.5150
     18 O3          4.4744   -1.2206    1.9125 O.2       1 <0>        -0.4866
     19 C11         3.6586    0.7052    2.9508 C.ar      1 <0>        -0.1462
     20 C12         3.9612    1.8732    3.6539 C.ar      1 <0>        -0.0063
     21 C13         2.9459    2.7186    4.0498 C.ar      1 <0>        -0.1473
     22 C14         1.6298    2.4114    3.7522 C.ar      1 <0>         0.0200
     23 C15         1.3229    1.2560    3.0560 C.ar      1 <0>        -0.6903
     24 C16         2.3282    0.3988    2.6584 C.ar      1 <0>         0.0442
     25 S2         -0.3563    0.8747    2.6823 S.o2      1 <0>         2.6949
     26 O4         -1.1510    1.5568    3.6427 O.2       1 <0>        -0.9495
     27 O5         -0.4222   -0.5331    2.5004 O.2       1 <0>        -0.9462
     28 N3         -0.6984    1.5583    1.2133 N.pl3     1 <0>        -1.1106
     29 C17        -0.0127    1.0858    0.0080 C.3       1 <0>         0.1558
     30 C18        -0.7416    1.5850   -1.2129 C.ar      1 <0>        -0.1045
     31 C19        -1.7499    0.8246   -1.7750 C.ar      1 <0>        -0.0993
     32 C20        -2.4220    1.2850   -2.8918 C.ar      1 <0>        -0.1206
     33 C21        -2.0785    2.5007   -3.4529 C.ar      1 <0>        -0.1103
     34 C22        -1.0663    3.2585   -2.8942 C.ar      1 <0>        -0.1218
     35 C23        -0.3980    2.8008   -1.7740 C.ar      1 <0>        -0.1026
     36 C24        13.9658    0.2902    5.8462 C.3       1 <0>        -0.0676
     37 H3         12.0569   -2.2378    7.1103 H         1 <0>         0.0733
     38 H4         12.3731   -0.6160    7.7723 H         1 <0>         0.0688
     39 H5         10.7024   -1.2184    7.6527 H         1 <0>         0.0827
     40 H6          7.9261    0.5441    0.9834 H         1 <0>         0.0868
     41 H7          8.2620   -1.1659    0.6211 H         1 <0>         0.0875
     42 H8          6.6561   -0.4814    0.2737 H         1 <0>         0.0754
     43 H9          4.9879    2.1141    3.8869 H         1 <0>         0.1483
     44 H10         3.1786    3.6222    4.5937 H         1 <0>         0.1469
     45 H11         0.8386    3.0766    4.0652 H         1 <0>         0.1511
     46 H12         2.0870   -0.5051    2.1188 H         1 <0>         0.1582
     47 H13        -1.3529    2.2715    1.1509 H         1 <0>         0.4229
     48 H14         0.0021   -0.0041    0.0020 H         1 <0>         0.0923
     49 H15         1.0099    1.4631    0.0003 H         1 <0>         0.0752
     50 H16        -2.0153   -0.1273   -1.3392 H         1 <0>         0.1272
     51 H17        -3.2130    0.6931   -3.3281 H         1 <0>         0.1256
     52 H18        -2.6011    2.8587   -4.3276 H         1 <0>         0.1240
     53 H19        -0.7979    4.2083   -3.3326 H         1 <0>         0.1247
     54 H20         0.3927    3.3928   -1.3375 H         1 <0>         0.1243
     55 H21        14.5721    0.8529    5.1364 H         1 <0>         0.0767
     56 H22        13.8536    0.8661    6.7648 H         1 <0>         0.0848
     57 H23        14.4541   -0.6584    6.0693 H         1 <0>         0.0848
@<TRIPOS>BOND
     1    1    2 1
     2    1   37 1
     3    1   38 1
     4    1   39 1
     5    2    6 1
     6    2    3 2
     7    3    4 1
     8    3   36 1
     9    4    5 1
    10    5   12 1
    11    5    6 2
    12    6    7 1
    13    7    8 2
    14    7    9 am
    15    9   10 1
    16    9   11 1
    17   11   12 2
    18   11   13 1
    19   13   14 1
    20   13   15 1
    21   13   16 1
    22   15   40 1
    23   15   41 1
    24   15   42 1
    25   16   17 1
    26   17   18 2
    27   17   19 1
    28   19   24 ar
    29   19   20 ar
    30   20   21 ar
    31   20   43 1
    32   21   22 ar
    33   21   44 1
    34   22   23 ar
    35   22   45 1
    36   23   24 ar
    37   23   25 1
    38   24   46 1
    39   25   26 2
    40   25   27 2
    41   25   28 1
    42   28   29 1
    43   28   47 1
    44   29   30 1
    45   29   48 1
    46   29   49 1
    47   30   35 ar
    48   30   31 ar
    49   31   32 ar
    50   31   50 1
    51   32   33 ar
    52   32   51 1
    53   33   34 ar
    54   33   52 1
    55   34   35 ar
    56   34   53 1
    57   35   54 1
    58   36   55 1
    59   36   56 1
    60   36   57 1
@<TRIPOS>MOLECULE
ZINC22744162
   59    62     0     0     0
SMALL
USER_CHARGES
N-[3-[(2-fluorophenyl)sulfamoyl]-4-methyl-phenyl]-3-[(2S)-2-methyl-3-oxo-1,4-benzoxazin-4-yl]propanamide
@<TRIPOS>ATOM
      1 C1         -2.9348    2.9714   -6.4165 C.3       1 <0>        -0.1665
      2 C2         -1.9380    2.3937   -5.4451 C.ar      1 <0>         0.0102
      3 C3         -2.3020    2.1805   -4.1279 C.ar      1 <0>        -0.1197
      4 C4         -1.3925    1.6463   -3.2365 C.ar      1 <0>        -0.0593
      5 C5         -0.1077    1.3334   -3.6614 C.ar      1 <0>         0.1289
      6 C6          0.2544    1.5482   -4.9845 C.ar      1 <0>        -0.0415
      7 C7         -0.6617    2.0775   -5.8725 C.ar      1 <0>        -0.6610
      8 S1         -0.2031    2.3505   -7.5518 S.o2      1 <0>         2.6990
      9 O1          1.1607    1.9685   -7.6676 O.2       1 <0>        -0.9508
     10 O2         -1.2264    1.7735   -8.3512 O.2       1 <0>        -0.9430
     11 N1         -0.2610    3.9843   -7.8157 N.pl3     1 <0>        -1.0656
     12 C8          0.5477    4.8430   -7.0646 C.ar      1 <0>         0.1306
     13 C9          1.8214    4.4433   -6.6834 C.ar      1 <0>        -0.1484
     14 C10         2.6195    5.2953   -5.9447 C.ar      1 <0>        -0.0973
     15 C11         2.1485    6.5420   -5.5765 C.ar      1 <0>        -0.1054
     16 C12         0.8787    6.9431   -5.9495 C.ar      1 <0>        -0.1306
     17 C13         0.0759    6.0973   -6.6927 C.ar      1 <0>         0.0790
     18 F1         -1.1650    6.4886   -7.0564 F         1 <0>        -0.1343
     19 N2          0.8180    0.7975   -2.7592 N.am      1 <0>        -0.6858
     20 C14         0.7951    1.1757   -1.4658 C.2       1 <0>         0.5239
     21 O3          0.0376    2.0508   -1.1032 O.2       1 <0>        -0.5197
     22 C15         1.7108    0.5113   -0.4702 C.3       1 <0>        -0.1598
     23 C16         1.4864    1.1211    0.9150 C.3       1 <0>         0.1223
     24 N3          2.3765    0.4753    1.8828 N.am      1 <0>        -0.5487
     25 C17         1.9581   -0.6640    2.5848 C.ar      1 <0>         0.0940
     26 C18         0.8522   -1.3861    2.1675 C.ar      1 <0>        -0.1261
     27 C19         0.4555   -2.5062    2.8749 C.ar      1 <0>        -0.1094
     28 C20         1.1593   -2.9062    3.9959 C.ar      1 <0>        -0.1085
     29 C21         2.2679   -2.1971    4.4097 C.ar      1 <0>        -0.1068
     30 C22         2.6690   -1.0719    3.7108 C.ar      1 <0>         0.0794
     31 O4          3.7508   -0.3536    4.1145 O.3       1 <0>        -0.3007
     32 C23         4.5265    0.2716    3.0886 C.3       1 <0>         0.0794
     33 H1          5.1746    1.0009    3.5965 H         1 <0>         0.1529
     34 C24         3.6109    0.9716    2.1168 C.2       1 <0>         0.4935
     35 O5          3.9814    1.9762    1.5469 O.2       1 <0>        -0.5014
     36 C25         5.3404   -0.7905    2.3469 C.3       1 <0>        -0.1765
     37 H2         -3.8870    3.1567   -5.8979 H         1 <0>         0.0860
     38 H3         -3.0981    2.2609   -7.2403 H         1 <0>         0.1061
     39 H4         -2.5469    3.9182   -6.8203 H         1 <0>         0.0803
     40 H5         -3.2999    2.4278   -3.7973 H         1 <0>         0.1376
     41 H6         -1.6787    1.4759   -2.2092 H         1 <0>         0.1422
     42 H7          1.2512    1.3015   -5.3190 H         1 <0>         0.1471
     43 H8         -0.9356    4.3941   -8.5818 H         1 <0>         0.4584
     44 H9          2.1892    3.4681   -6.9668 H         1 <0>         0.1670
     45 H10         3.6117    4.9855   -5.6512 H         1 <0>         0.1370
     46 H11         2.7737    7.2041   -4.9958 H         1 <0>         0.1365
     47 H12         0.5137    7.9174   -5.6600 H         1 <0>         0.1408
     48 H13         1.5644    0.0675   -3.1056 H         1 <0>         0.4397
     49 H14         1.4946   -0.5667   -0.4357 H         1 <0>         0.1053
     50 H15         2.7567    0.6659   -0.7739 H         1 <0>         0.1061
     51 H16         1.7026    2.1991    0.8804 H         1 <0>         0.1057
     52 H17         0.4405    0.9665    1.2187 H         1 <0>         0.0987
     53 H18         0.3014   -1.0753    1.2920 H         1 <0>         0.1311
     54 H19        -0.4068   -3.0701    2.5509 H         1 <0>         0.1326
     55 H20         0.8448   -3.7819    4.5443 H         1 <0>         0.1352
     56 H21         2.8145   -2.5131    5.2859 H         1 <0>         0.1398
     57 H22         5.9373   -0.3101    1.5576 H         1 <0>         0.0843
     58 H23         4.6583   -1.5255    1.8947 H         1 <0>         0.0671
     59 H24         6.0108   -1.2995    3.0551 H         1 <0>         0.0888
@<TRIPOS>BOND
     1    1    2 1
     2    1   37 1
     3    1   38 1
     4    1   39 1
     5    2    7 ar
     6    2    3 ar
     7    3    4 ar
     8    3   40 1
     9    4    5 ar
    10    4   41 1
    11    5    6 ar
    12    5   19 1
    13    6    7 ar
    14    6   42 1
    15    7    8 1
    16    8    9 2
    17    8   10 2
    18    8   11 1
    19   11   12 1
    20   11   43 1
    21   12   17 ar
    22   12   13 ar
    23   13   14 ar
    24   13   44 1
    25   14   15 ar
    26   14   45 1
    27   15   16 ar
    28   15   46 1
    29   16   17 ar
    30   16   47 1
    31   17   18 1
    32   19   20 am
    33   19   48 1
    34   20   21 2
    35   20   22 1
    36   22   23 1
    37   22   49 1
    38   22   50 1
    39   23   24 1
    40   23   51 1
    41   23   52 1
    42   24   34 am
    43   24   25 1
    44   25   30 ar
    45   25   26 ar
    46   26   27 ar
    47   26   53 1
    48   27   28 ar
    49   27   54 1
    50   28   29 ar
    51   28   55 1
    52   29   30 ar
    53   29   56 1
    54   30   31 1
    55   31   32 1
    56   32   33 1
    57   32   34 1
    58   32   36 1
    59   34   35 2
    60   36   57 1
    61   36   58 1
    62   36   59 1
@<TRIPOS>MOLECULE
ZINC33939847
   79    83     0     0     0
SMALL
USER_CHARGES

@<TRIPOS>ATOM
      1 C1          0.1952    1.3784   -0.0373 C.3       1 <0>        -0.1243
      2 C2          0.0651   -0.1455    0.0040 C.3       1 <0>         0.1324
      3 C3          0.7434   -0.9123   -1.1380 C.2       1 <0>        -0.1618
      4 C4          0.8916   -2.1473   -0.6816 C.2       1 <0>        -0.1462
      5 C5          0.3686   -2.1253    0.7430 C.3       1 <0>         0.1061
      6 O1          0.6481   -0.8213    1.1952 O.3       1 <0>        -0.3113
      7 C6         -1.2101   -2.0406    0.7002 C.3       1 <0>        -0.1687
      8 H1         -1.5837   -1.9366    1.7189 H         1 <0>         0.1238
      9 C7         -1.4058   -0.7164   -0.0130 C.3       1 <0>        -0.1056
     10 H2         -2.0877   -0.0571    0.5241 H         1 <0>         0.1120
     11 C8         -1.8802   -0.9477   -1.4246 C.2       1 <0>         0.5248
     12 O2         -1.5222   -1.9355   -2.0304 O.2       1 <0>        -0.5007
     13 N1         -2.7022   -0.0569   -2.0138 N.am      1 <0>        -0.7269
     14 C9         -3.1633   -0.2817   -3.3860 C.3       1 <0>         0.1479
     15 C10        -2.1194    0.2525   -4.3688 C.3       1 <0>        -0.1259
     16 C11        -2.6010    0.0176   -5.8019 C.3       1 <0>        -0.1178
     17 C12        -3.9277    0.7477   -6.0202 C.3       1 <0>        -0.1218
     18 C13        -4.9715    0.2135   -5.0375 C.3       1 <0>        -0.1166
     19 C14        -4.4900    0.4484   -3.6043 C.3       1 <0>        -0.1264
     20 C15        -1.5320   -3.3890    0.1991 C.2       1 <0>         0.5690
     21 O3         -2.4537   -3.6871   -0.5306 O.2       1 <0>        -0.4822
     22 N2         -0.5890   -4.2440    0.7167 N.am      1 <0>        -0.6107
     23 C16         0.4713   -3.4565    1.4206 C.3       1 <0>         0.1577
     24 H3          1.4548   -3.8992    1.2627 H         1 <0>         0.1236
     25 C17         0.1665   -3.3372    2.8916 C.2       1 <0>         0.5098
     26 O4         -0.9296   -3.6439    3.3106 O.2       1 <0>        -0.5155
     27 N3          1.1118   -2.8895    3.7415 N.am      1 <0>        -0.7123
     28 C18         0.8154   -2.7735    5.1715 C.3       1 <0>         0.1703
     29 C19         0.4394   -4.1483    5.7277 C.3       1 <0>        -0.1646
     30 C20         2.0490   -2.2459    5.9069 C.3       1 <0>        -0.1561
     31 C21        -0.3517   -1.8050    5.3735 C.3       1 <0>        -0.1636
     32 C22        -0.6173   -5.7039    0.5976 C.3       1 <0>         0.1450
     33 C23         0.1251   -6.1265   -0.6717 C.3       1 <0>        -0.0924
     34 C24         0.0960   -7.6283   -0.7941 C.ar      1 <0>        -0.1195
     35 C25         1.1017   -8.3868   -0.2242 C.ar      1 <0>        -0.0753
     36 C26         1.0776   -9.7636   -0.3354 C.ar      1 <0>        -0.1503
     37 C27         0.0429  -10.3850   -1.0194 C.ar      1 <0>         0.1248
     38 C28        -0.9653   -9.6217   -1.5900 C.ar      1 <0>        -0.2052
     39 C29        -0.9393   -8.2456   -1.4715 C.ar      1 <0>        -0.0710
     40 O5          0.0171  -11.7392   -1.1306 O.3       1 <0>        -0.3185
     41 C30        -1.0784  -12.3105   -1.8486 C.3       1 <0>         0.0267
     42 H4          1.2500    1.6531   -0.0390 H         1 <0>         0.0803
     43 H5         -0.2809    1.7593   -0.9408 H         1 <0>         0.0832
     44 H6         -0.2908    1.8084    0.8385 H         1 <0>         0.0762
     45 H7          1.0363   -0.5290   -2.1042 H         1 <0>         0.1523
     46 H8          1.3001   -2.9941   -1.2131 H         1 <0>         0.1506
     47 H9         -2.9885    0.7332   -1.5293 H         1 <0>         0.3968
     48 H10        -3.3048   -1.3498   -3.5513 H         1 <0>         0.0889
     49 H11        -1.9779    1.3206   -4.2035 H         1 <0>         0.0620
     50 H12        -1.1742   -0.2676   -4.2133 H         1 <0>         0.0655
     51 H13        -1.8573    0.3983   -6.5021 H         1 <0>         0.0643
     52 H14        -2.7425   -1.0504   -5.9672 H         1 <0>         0.0640
     53 H15        -3.7861    1.8158   -5.8549 H         1 <0>         0.0623
     54 H16        -4.2708    0.5804   -7.0412 H         1 <0>         0.0638
     55 H17        -5.9167    0.7336   -5.1930 H         1 <0>         0.0671
     56 H18        -5.1131   -0.8545   -5.2028 H         1 <0>         0.0652
     57 H19        -5.2336    0.0678   -2.9042 H         1 <0>         0.0683
     58 H20        -4.3484    1.5164   -3.4390 H         1 <0>         0.0671
     59 H21         1.9884   -2.6442    3.4064 H         1 <0>         0.4016
     60 H22         1.2709   -4.8383    5.5838 H         1 <0>         0.0546
     61 H23         0.2189   -4.0620    6.7916 H         1 <0>         0.0643
     62 H24        -0.4394   -4.5242    5.2038 H         1 <0>         0.0774
     63 H25         2.3169   -1.2664    5.5107 H         1 <0>         0.0639
     64 H26         1.8285   -2.1595    6.9708 H         1 <0>         0.0747
     65 H27         2.8805   -2.9358    5.7630 H         1 <0>         0.0626
     66 H28        -1.2306   -2.1809    4.8497 H         1 <0>         0.0757
     67 H29        -0.5722   -1.7187    6.4375 H         1 <0>         0.0634
     68 H30        -0.0839   -0.8256    4.9773 H         1 <0>         0.0564
     69 H31        -0.1331   -6.1488    1.4669 H         1 <0>         0.0799
     70 H32        -1.6515   -6.0441    0.5440 H         1 <0>         0.0858
     71 H33        -0.3591   -5.6817   -1.5410 H         1 <0>         0.0801
     72 H34         1.1593   -5.7863   -0.6180 H         1 <0>         0.0730
     73 H35         1.9070   -7.9025    0.3082 H         1 <0>         0.1284
     74 H36         1.8638  -10.3556    0.1094 H         1 <0>         0.1306
     75 H37        -1.7719  -10.1031   -2.1230 H         1 <0>         0.1281
     76 H38        -1.7262   -7.6511   -1.9117 H         1 <0>         0.1259
     77 H39        -0.9774  -13.3957   -1.8624 H         1 <0>         0.1009
     78 H40        -2.0142  -12.0389   -1.3601 H         1 <0>         0.0560
     79 H41        -1.0793  -11.9326   -2.8710 H         1 <0>         0.0558
@<TRIPOS>BOND
     1    1    2 1
     2    1   42 1
     3    1   43 1
     4    1   44 1
     5    2    6 1
     6    2    9 1
     7    2    3 1
     8    3    4 2
     9    3   45 1
    10    4    5 1
    11    4   46 1
    12    5   23 1
    13    5    6 1
    14    5    7 1
    15    7    8 1
    16    7    9 1
    17    7   20 1
    18    9   10 1
    19    9   11 1
    20   11   12 2
    21   11   13 am
    22   13   14 1
    23   13   47 1
    24   14   19 1
    25   14   15 1
    26   14   48 1
    27   15   16 1
    28   15   49 1
    29   15   50 1
    30   16   17 1
    31   16   51 1
    32   16   52 1
    33   17   18 1
    34   17   53 1
    35   17   54 1
    36   18   19 1
    37   18   55 1
    38   18   56 1
    39   19   57 1
    40   19   58 1
    41   20   21 2
    42   20   22 am
    43   22   23 1
    44   22   32 1
    45   23   24 1
    46   23   25 1
    47   25   26 2
    48   25   27 am
    49   27   28 1
    50   27   59 1
    51   28   29 1
    52   28   30 1
    53   28   31 1
    54   29   60 1
    55   29   61 1
    56   29   62 1
    57   30   63 1
    58   30   64 1
    59   30   65 1
    60   31   66 1
    61   31   67 1
    62   31   68 1
    63   32   33 1
    64   32   69 1
    65   32   70 1
    66   33   34 1
    67   33   71 1
    68   33   72 1
    69   34   39 ar
    70   34   35 ar
    71   35   36 ar
    72   35   73 1
    73   36   37 ar
    74   36   74 1
    75   37   38 ar
    76   37   40 1
    77   38   39 ar
    78   38   75 1
    79   39   76 1
    80   40   41 1
    81   41   77 1
    82   41   78 1
    83   41   79 1
@<TRIPOS>MOLECULE
ZINC38701769
   64    68     0     0     0
SMALL
USER_CHARGES

@<TRIPOS>ATOM
      1 C1          0.1005    1.4703   -0.2438 C.3       1 <0>        -0.1480
      2 C2          0.1038   -0.0572   -0.1568 C.3       1 <0>        -0.0938
      3 C3          0.7877   -0.4926    1.1407 C.3       1 <0>        -0.1540
      4 C4         -1.3370   -0.5720   -0.1716 C.3       1 <0>        -0.1144
      5 C5         -1.3317   -2.1015   -0.2104 C.3       1 <0>         0.0571
      6 O1         -2.6773   -2.5822   -0.2242 O.3       1 <0>        -0.3120
      7 C6         -2.8507   -3.9297   -0.2586 C.ar      1 <0>         0.1396
      8 C7         -1.7483   -4.7721   -0.2728 C.ar      1 <0>        -0.1978
      9 C8         -1.9272   -6.1412   -0.3073 C.ar      1 <0>        -0.0755
     10 C9         -3.2037   -6.6726   -0.3276 C.ar      1 <0>        -0.1319
     11 C10        -4.3038   -5.8355   -0.3139 C.ar      1 <0>        -0.0623
     12 C11        -4.1302   -4.4653   -0.2737 C.ar      1 <0>        -0.1381
     13 C12        -5.6935   -6.4179   -0.3366 C.3       1 <0>         0.2487
     14 H1         -6.4271   -5.6305   -0.5096 H         1 <0>         0.1168
     15 C13        -5.9825   -7.1184    0.9627 C.2       1 <0>        -0.1686
     16 C14        -6.1135   -7.0198    2.3521 C.2       1 <0>         0.1186
     17 N1         -6.4152   -8.2204    2.8061 N.2       1 <0>        -0.2210
     18 N2         -6.4877   -9.0669    1.8414 N.pl3     1 <0>        -0.3322
     19 H2         -6.6970  -10.0087    1.9414 H         1 <0>         0.4541
     20 C15        -6.2270   -8.4429    0.6546 C.2       1 <0>        -0.0641
     21 C16        -6.1045   -8.6144   -0.7974 C.2       1 <0>         0.6025
     22 O2         -6.2609   -9.6661   -1.3880 O.2       1 <0>        -0.5090
     23 N3         -5.7951   -7.4424   -1.3840 N.am      1 <0>        -0.5855
     24 C17        -5.5940   -7.2258   -2.8189 C.3       1 <0>         0.1720
     25 H3         -5.3662   -6.1761   -3.0042 H         1 <0>         0.1252
     26 C18        -6.8645   -7.6251   -3.5875 C.3       1 <0>        -0.1459
     27 C19        -6.5607   -7.7067   -5.1030 C.3       1 <0>        -0.5724
     28 S1         -4.7727   -8.1363   -5.1339 S.o2      1 <0>         2.3741
     29 O3         -4.6246   -9.4643   -5.6175 O.2       1 <0>        -0.9273
     30 O4         -4.0543   -7.0808   -5.7577 O.2       1 <0>        -0.9286
     31 C20        -4.4225   -8.1149   -3.3253 C.3       1 <0>        -0.6015
     32 C21        -5.9436   -5.7901    3.1655 C.ar      1 <0>        -0.0440
     33 C22        -5.7524   -4.5598    2.5416 C.ar      1 <0>        -0.0819
     34 C23        -5.5948   -3.4189    3.3023 C.ar      1 <0>        -0.1255
     35 C24        -5.6261   -3.4928    4.6837 C.ar      1 <0>        -0.0934
     36 C25        -5.8147   -4.7087    5.3127 C.ar      1 <0>        -0.1473
     37 C26        -5.9805   -5.8608    4.5608 C.ar      1 <0>         0.1325
     38 O5         -6.1726   -7.0558    5.1779 O.3       1 <0>        -0.4814
     39 H4          1.1269    1.8371   -0.2333 H         1 <0>         0.0582
     40 H5         -0.3867    1.7805   -1.1682 H         1 <0>         0.0568
     41 H6         -0.4410    1.8816    0.6080 H         1 <0>         0.0569
     42 H7          0.6453   -0.4685   -1.0087 H         1 <0>         0.0728
     43 H8          0.2461   -0.0813    1.9926 H         1 <0>         0.0579
     44 H9          0.7900   -1.5809    1.2027 H         1 <0>         0.0544
     45 H10         1.8141   -0.1259    1.1512 H         1 <0>         0.0580
     46 H11        -1.8531   -0.2331    0.7267 H         1 <0>         0.0754
     47 H12        -1.8510   -0.1879   -1.0527 H         1 <0>         0.0752
     48 H13        -0.8155   -2.4403   -1.1086 H         1 <0>         0.0627
     49 H14        -0.8177   -2.4855    0.6708 H         1 <0>         0.0655
     50 H15        -0.7511   -4.3576   -0.2573 H         1 <0>         0.1297
     51 H16        -1.0694   -6.7974   -0.3188 H         1 <0>         0.1274
     52 H17        -3.3415   -7.7435   -0.3545 H         1 <0>         0.1186
     53 H18        -4.9899   -3.8118   -0.2585 H         1 <0>         0.1358
     54 H19        -7.2103   -8.5968   -3.2350 H         1 <0>         0.1041
     55 H20        -7.6415   -6.8808   -3.4138 H         1 <0>         0.1039
     56 H21        -7.1545   -8.4897   -5.5746 H         1 <0>         0.1474
     57 H22        -6.7354   -6.7446   -5.5845 H         1 <0>         0.1441
     58 H23        -3.4578   -7.6524   -3.1162 H         1 <0>         0.1483
     59 H24        -4.4768   -9.1175   -2.9012 H         1 <0>         0.1531
     60 H25        -5.7271   -4.4985    1.4636 H         1 <0>         0.1294
     61 H26        -5.4463   -2.4653    2.8176 H         1 <0>         0.1303
     62 H27        -5.5021   -2.5962    5.2729 H         1 <0>         0.1291
     63 H28        -5.8379   -4.7603    6.3912 H         1 <0>         0.1324
     64 H29        -5.3548   -7.5337    5.3730 H         1 <0>         0.3891
@<TRIPOS>BOND
     1    1    2 1
     2    1   39 1
     3    1   40 1
     4    1   41 1
     5    2    3 1
     6    2    4 1
     7    2   42 1
     8    3   43 1
     9    3   44 1
    10    3   45 1
    11    4    5 1
    12    4   46 1
    13    4   47 1
    14    5    6 1
    15    5   48 1
    16    5   49 1
    17    6    7 1
    18    7   12 ar
    19    7    8 ar
    20    8    9 ar
    21    8   50 1
    22    9   10 ar
    23    9   51 1
    24   10   11 ar
    25   10   52 1
    26   11   12 ar
    27   11   13 1
    28   12   53 1
    29   13   14 1
    30   13   23 1
    31   13   15 1
    32   15   20 2
    33   15   16 1
    34   16   17 2
    35   16   32 1
    36   17   18 1
    37   18   19 1
    38   18   20 1
    39   20   21 1
    40   21   22 2
    41   21   23 am
    42   23   24 1
    43   24   25 1
    44   24   31 1
    45   24   26 1
    46   26   27 1
    47   26   54 1
    48   26   55 1
    49   27   28 1
    50   27   56 1
    51   27   57 1
    52   28   29 2
    53   28   30 2
    54   28   31 1
    55   31   58 1
    56   31   59 1
    57   32   37 ar
    58   32   33 ar
    59   33   34 ar
    60   33   60 1
    61   34   35 ar
    62   34   61 1
    63   35   36 ar
    64   35   62 1
    65   36   37 ar
    66   36   63 1
    67   37   38 1
    68   38   64 1
@<TRIPOS>MOLECULE
ZINC12447761
   66    70     0     0     0
SMALL
USER_CHARGES

@<TRIPOS>ATOM
      1 C1         -0.0184    1.5028    0.0103 C.3       1 <0>        -0.1120
      2 C2          0.0021   -0.0041    0.0020 C.ar      1 <0>        -0.1061
      3 C3          0.0057   -0.6874   -1.2002 C.ar      1 <0>        -0.0998
      4 C4          0.0239   -2.0683   -1.2112 C.ar      1 <0>        -0.1292
      5 C5          0.0391   -2.7707   -0.0132 C.ar      1 <0>         0.1680
      6 C6          0.0359   -2.0814    1.1924 C.ar      1 <0>        -0.1454
      7 C7          0.0229   -0.7004    1.1966 C.ar      1 <0>        -0.0942
      8 N1          0.0572   -4.1710   -0.0209 N.am      1 <0>        -0.4019
      9 N2          0.0676   -4.9636   -1.1684 N.2       1 <0>        -0.2581
     10 C8          0.0839   -6.2266   -0.8694 C.2       1 <0>         0.1582
     11 C9          0.0850   -6.3356    0.5969 C.2       1 <0>        -0.3662
     12 C10         0.1002   -7.4937    1.3568 C.2       1 <0>         0.2948
     13 N3          0.0989   -7.4167    2.7037 N.pl3     1 <0>        -0.6198
     14 C11         0.1142   -8.5857    3.4707 C.ar      1 <0>         0.1149
     15 C12         0.1071   -8.5088    4.8645 C.ar      1 <0>         0.1148
     16 C13         0.1225   -9.6729    5.6190 C.ar      1 <0>        -0.1277
     17 C14         0.1447  -10.9036    4.9903 C.ar      1 <0>        -0.0979
     18 C15         0.1522  -10.9798    3.6095 C.ar      1 <0>        -0.0979
     19 C16         0.1308   -9.8258    2.8491 C.ar      1 <0>        -0.1277
     20 N4          0.0851   -7.2626    5.4981 N.pl3     1 <0>        -0.6196
     21 C17         0.0783   -7.1908    6.8453 C.2       1 <0>         0.2946
     22 C18         0.0565   -5.9562    7.4730 C.2       1 <0>        -0.3658
     23 C19         0.0321   -4.6319    6.8402 C.2       1 <0>         0.5268
     24 O1          0.0272   -4.3900    5.6447 O.2       1 <0>        -0.5132
     25 N5          0.0162   -3.7369    7.8487 N.am      1 <0>        -0.4017
     26 N6          0.0287   -4.3983    9.0765 N.2       1 <0>        -0.2588
     27 C20         0.0462   -5.6866    8.9184 C.2       1 <0>         0.1582
     28 C21         0.0576   -6.7183   10.0168 C.3       1 <0>        -0.0821
     29 C22        -0.0088   -2.3461    7.6868 C.ar      1 <0>         0.1681
     30 C23        -0.0247   -1.7940    6.4126 C.ar      1 <0>        -0.1454
     31 C24        -0.0498   -0.4220    6.2563 C.ar      1 <0>        -0.0942
     32 C25        -0.0591    0.4018    7.3669 C.ar      1 <0>        -0.1062
     33 C26        -0.0429   -0.1448    8.6371 C.ar      1 <0>        -0.0998
     34 C27        -0.0235   -1.5161    8.8001 C.ar      1 <0>        -0.1292
     35 C28        -0.0865    1.8985    7.1927 C.3       1 <0>        -0.1120
     36 C29         0.0729   -4.9494    1.0800 C.2       1 <0>         0.5268
     37 O2          0.0740   -4.5773    2.2416 O.2       1 <0>        -0.5133
     38 C30         0.0984   -7.3730   -1.8475 C.3       1 <0>        -0.0841
     39 H1          1.0042    1.8801    0.0026 H         1 <0>         0.0693
     40 H2         -0.5455    1.8639   -0.8728 H         1 <0>         0.0657
     41 H3         -0.5286    1.8543    0.9071 H         1 <0>         0.0657
     42 H4         -0.0061   -0.1407   -2.1315 H         1 <0>         0.1274
     43 H5          0.0260   -2.6015   -2.1504 H         1 <0>         0.1335
     44 H6          0.0477   -2.6247    2.1257 H         1 <0>         0.1537
     45 H7          0.0244   -0.1637    2.1338 H         1 <0>         0.1271
     46 H8          0.1131   -8.4582    0.8710 H         1 <0>         0.1790
     47 H9          0.0873   -6.5505    3.1400 H         1 <0>         0.4275
     48 H10         0.1174   -9.6175    6.6976 H         1 <0>         0.1408
     49 H11         0.1567  -11.8087    5.5794 H         1 <0>         0.1403
     50 H12         0.1699  -11.9442    3.1237 H         1 <0>         0.1403
     51 H13         0.1318   -9.8894    1.7709 H         1 <0>         0.1409
     52 H14         0.0747   -6.4496    4.9691 H         1 <0>         0.4275
     53 H15         0.0899   -8.0960    7.4344 H         1 <0>         0.1789
     54 H16         1.0878   -6.9511   10.2860 H         1 <0>         0.0905
     55 H17        -0.4661   -6.3265   10.8888 H         1 <0>         0.0875
     56 H18        -0.4408   -7.6236    9.6701 H         1 <0>         0.0828
     57 H19        -0.0171   -2.4369    5.5448 H         1 <0>         0.1538
     58 H20        -0.0618    0.0079    5.2656 H         1 <0>         0.1271
     59 H21        -0.0498    0.5013    9.5025 H         1 <0>         0.1274
     60 H22        -0.0154   -1.9424    9.7924 H         1 <0>         0.1335
     61 H23        -1.1206    2.2411    7.1556 H         1 <0>         0.0694
     62 H24         0.4230    2.3714    8.0323 H         1 <0>         0.0657
     63 H25         0.4182    2.1655    6.2642 H         1 <0>         0.0657
     64 H26         0.0936   -6.9825   -2.8651 H         1 <0>         0.0864
     65 H27         0.9959   -7.9717   -1.6922 H         1 <0>         0.0882
     66 H28        -0.7839   -7.9940   -1.6925 H         1 <0>         0.0883
@<TRIPOS>BOND
     1    1    2 1
     2    1   39 1
     3    1   40 1
     4    1   41 1
     5    2    7 ar
     6    2    3 ar
     7    3    4 ar
     8    3   42 1
     9    4    5 ar
    10    4   43 1
    11    5    6 ar
    12    5    8 1
    13    6    7 ar
    14    6   44 1
    15    7   45 1
    16    8   36 am
    17    8    9 1
    18    9   10 2
    19   10   11 1
    20   10   38 1
    21   11   12 2
    22   11   36 1
    23   12   13 1
    24   12   46 1
    25   13   14 1
    26   13   47 1
    27   14   19 ar
    28   14   15 ar
    29   15   16 ar
    30   15   20 1
    31   16   17 ar
    32   16   48 1
    33   17   18 ar
    34   17   49 1
    35   18   19 ar
    36   18   50 1
    37   19   51 1
    38   20   21 1
    39   20   52 1
    40   21   22 2
    41   21   53 1
    42   22   27 1
    43   22   23 1
    44   23   24 2
    45   23   25 am
    46   25   26 1
    47   25   29 1
    48   26   27 2
    49   27   28 1
    50   28   54 1
    51   28   55 1
    52   28   56 1
    53   29   34 ar
    54   29   30 ar
    55   30   31 ar
    56   30   57 1
    57   31   32 ar
    58   31   58 1
    59   32   33 ar
    60   32   35 1
    61   33   34 ar
    62   33   59 1
    63   34   60 1
    64   35   61 1
    65   35   62 1
    66   35   63 1
    67   36   37 2
    68   38   64 1
    69   38   65 1
    70   38   66 1
@<TRIPOS>MOLECULE
ZINC00090339
   39    41     0     0     0
SMALL
USER_CHARGES
3-methyl-2-BLAHylamino-pentanoic acid
@<TRIPOS>ATOM
      1 C1         -2.9122    4.3297    2.5773 C.3       1 <0>        -0.1506
      2 C2         -2.8565    3.3590    1.3960 C.3       1 <0>        -0.1170
      3 C3         -1.4708    2.7136    1.3312 C.3       1 <0>        -0.0880
      4 H1         -0.7083    3.4921    1.3050 H         1 <0>         0.0900
      5 C4         -1.2595    1.8341    2.5651 C.3       1 <0>        -0.1454
      6 C5         -1.3666    1.8551    0.0690 C.3       1 <0>         0.1052
      7 H2         -1.5550    2.4742   -0.8081 H         1 <0>         0.0951
      8 C6          0.0158    1.2620   -0.0223 C.2       1 <0>         0.4662
      9 O1          0.2163    0.1349    0.3640 O.co2     1 <0>        -0.6318
     10 N1         -2.3573    0.7776    0.1282 N.pl3     1 <0>        -0.6574
     11 C7         -2.8250    0.2032   -1.0400 C.ar      1 <0>         0.4982
     12 C8         -3.7823   -0.8473   -0.9951 C.ar      1 <0>        -0.2499
     13 C9         -4.4109   -1.4622    0.1855 C.2       1 <0>        -0.0857
     14 C10        -5.3012   -2.4412   -0.0419 C.2       1 <0>        -0.1992
     15 S1         -5.3666   -2.6058   -1.8114 S.3       1 <0>         0.1184
     16 C11        -4.1915   -1.3515   -2.2426 C.ar      1 <0>         0.1559
     17 N2         -3.7001   -0.8781   -3.3721 N.ar      1 <0>        -0.5413
     18 C12        -2.8088    0.0941   -3.3524 C.ar      1 <0>         0.3663
     19 N3         -2.3843    0.6192   -2.2169 N.ar      1 <0>        -0.5792
     20 C13        -5.8759   -2.9946    1.2347 C.3       1 <0>        -0.0281
     21 C14        -5.5443   -1.9292    2.3026 C.3       1 <0>        -0.1131
     22 C15        -4.2942   -1.2597    1.6990 C.3       1 <0>        -0.0736
     23 H3         -2.7205    3.7870    3.5029 H         1 <0>         0.0553
     24 H4         -2.1565    5.1043    2.4470 H         1 <0>         0.0547
     25 H5         -3.8994    4.7895    2.6235 H         1 <0>         0.0487
     26 H6         -3.0483    3.9017    0.4704 H         1 <0>         0.0611
     27 H7         -3.6123    2.5844    1.5263 H         1 <0>         0.0547
     28 H8         -0.2723    1.3743    2.5189 H         1 <0>         0.0689
     29 H9         -1.3337    2.4457    3.4643 H         1 <0>         0.0544
     30 H10        -2.0220    1.0556    2.5912 H         1 <0>         0.0425
     31 H11        -2.6854    0.4670    0.9865 H         1 <0>         0.4050
     32 H12        -2.4173    0.4697   -4.2862 H         1 <0>         0.2032
     33 H13        -6.9550   -3.1188    1.1435 H         1 <0>         0.0777
     34 H14        -5.4026   -3.9440    1.4848 H         1 <0>         0.0839
     35 H15        -6.3594   -1.2128    2.4055 H         1 <0>         0.0763
     36 H16        -5.3133   -2.3954    3.2604 H         1 <0>         0.0839
     37 H17        -4.2839   -0.1962    1.9374 H         1 <0>         0.0706
     38 H18        -3.3907   -1.7389    2.0762 H         1 <0>         0.0865
     39 O2          1.0231    1.9839   -0.5380 O.co2     1 <0>        -0.7624
@<TRIPOS>BOND
     1    1    2 1
     2    1   23 1
     3    1   24 1
     4    1   25 1
     5    2    3 1
     6    2   26 1
     7    2   27 1
     8    3    4 1
     9    3    5 1
    10    3    6 1
    11    5   28 1
    12    5   29 1
    13    5   30 1
    14    6    7 1
    15    6    8 1
    16    6   10 1
    17    8    9 2
    18    8   39 1
    19   10   11 1
    20   10   31 1
    21   11   19 ar
    22   11   12 ar
    23   12   16 ar
    24   12   13 1
    25   13   22 1
    26   13   14 2
    27   14   15 1
    28   14   20 1
    29   15   16 1
    30   16   17 ar
    31   17   18 ar
    32   18   19 ar
    33   18   32 1
    34   20   21 1
    35   20   33 1
    36   20   34 1
    37   21   22 1
    38   21   35 1
    39   21   36 1
    40   22   37 1
    41   22   38 1
@<TRIPOS>MOLECULE
ZINC37692596
   29    30     0     0     0
SMALL
USER_CHARGES

@<TRIPOS>ATOM
      1 C1          0.4561    0.4598    0.9096 C.ar      1 <0>        -0.0981
      2 C2          1.6226    1.1636    0.9995 C.ar      1 <0>        -0.0817
      3 C3          2.3815    1.4070   -0.1439 C.ar      1 <0>        -0.1428
      4 C4          1.9529    0.9333   -1.3826 C.ar      1 <0>        -0.0830
      5 C5          0.7875    0.2287   -1.4799 C.ar      1 <0>        -0.0971
      6 C6          0.0226   -0.0177   -0.3332 C.ar      1 <0>        -0.0944
      7 C7         -1.2335   -0.7763   -0.4341 C.2       1 <0>         0.5145
      8 O1         -1.9008   -0.9908    0.5688 O.co2     1 <0>        -0.6809
      9 O2         -1.6110   -1.1929   -1.5209 O.co2     1 <0>        -0.6808
     10 S1          3.8859    2.3163   -0.0232 S.3       1 <0>        -0.1170
     11 C8          5.1633    1.0354    0.1113 C.3       1 <0>        -0.0876
     12 H1          5.0643    0.3569   -0.7359 H         1 <0>         0.1273
     13 C9          4.9260    0.2371    1.4128 C.3       1 <0>        -0.5585
     14 S2          6.6596   -0.0909    1.9553 S.o2      1 <0>         2.3685
     15 O3          7.1695   -1.2133    1.2487 O.2       1 <0>        -0.9204
     16 O4          6.7217   -0.0636    3.3747 O.2       1 <0>        -0.9342
     17 C10         7.4146    1.4518    1.2790 C.3       1 <0>        -0.6069
     18 C11         6.5288    1.7024    0.0422 C.3       1 <0>         0.1297
     19 H2          6.3857    2.7771   -0.0702 H         1 <0>         0.0918
     20 O5          7.2161    1.2159   -1.1124 O.3       1 <0>        -0.5505
     21 H3         -0.1292    0.2677    1.7967 H         1 <0>         0.1339
     22 H4          1.9574    1.5325    1.9577 H         1 <0>         0.1246
     23 H5          2.5433    1.1240   -2.2666 H         1 <0>         0.1241
     24 H6          0.4558   -0.1378   -2.4401 H         1 <0>         0.1335
     25 H7          4.3920    0.8378    2.1491 H         1 <0>         0.1522
     26 H8          4.3960   -0.6937    1.2104 H         1 <0>         0.1490
     27 H9          7.3323    2.2730    1.9911 H         1 <0>         0.1492
     28 H10         8.4532    1.2867    0.9923 H         1 <0>         0.1482
     29 H11         8.0989    1.5920   -1.2322 H         1 <0>         0.3875
@<TRIPOS>BOND
     1    1    6 ar
     2    1    2 ar
     3    1   21 1
     4    2    3 ar
     5    2   22 1
     6    3    4 ar
     7    3   10 1
     8    4    5 ar
     9    4   23 1
    10    5    6 ar
    11    5   24 1
    12    6    7 1
    13    7    8 2
    14    7    9 1
    15   10   11 1
    16   11   12 1
    17   11   18 1
    18   11   13 1
    19   13   14 1
    20   13   25 1
    21   13   26 1
    22   14   15 2
    23   14   16 2
    24   14   17 1
    25   17   18 1
    26   17   27 1
    27   17   28 1
    28   18   19 1
    29   18   20 1
    30   20   29 1
@<TRIPOS>MOLECULE
ZINC42335390
   30    32     0     0     0
SMALL
USER_CHARGES

@<TRIPOS>ATOM
      1 C1         -0.0186    1.5195    0.0104 C.3       1 <0>        -0.0664
      2 C2          1.3832    2.1124    0.0002 C.3       1 <0>        -0.0785
      3 S1          2.2989    1.4206   -1.4130 S.3       1 <0>        -0.2441
      4 C3          2.3728   -0.3445   -0.9761 C.3       1 <0>         0.0067
      5 C4          1.0327   -0.7554   -0.4308 C.2       1 <0>        -0.2011
      6 C5          0.0021   -0.0041    0.0020 C.2       1 <0>        -0.0252
      7 C6         -1.1653   -0.7365    0.4915 C.2       1 <0>        -0.2885
      8 C7         -2.3715   -0.1564    1.0107 C.2       1 <0>         0.5646
      9 O1         -2.5303    1.0494    1.0914 O.2       1 <0>        -0.5242
     10 N1         -3.3216   -1.0379    1.4046 N.am      1 <0>        -0.6355
     11 H1         -4.1542   -0.6914    1.7620 H         1 <0>         0.4211
     12 C8         -3.1635   -2.3809    1.3221 C.2       1 <0>         0.4241
     13 N2         -2.0733   -2.9473    0.8531 N.2       1 <0>        -0.4656
     14 C9         -1.0951   -2.1422    0.4471 C.2       1 <0>         0.1241
     15 S2          0.5023   -2.4456   -0.2324 S.3       1 <0>         0.1498
     16 C10        -4.2892   -3.2669    1.7900 C.3       1 <0>        -0.0613
     17 C11        -3.8942   -4.7335    1.6056 C.3       1 <0>        -0.1650
     18 C12        -5.0198   -5.6195    2.0735 C.2       1 <0>         0.4897
     19 O2         -6.0431   -5.1239    2.5137 O.co2     1 <0>        -0.7021
     20 O3         -4.9073   -6.8320    2.0119 O.co2     1 <0>        -0.6978
     21 H2         -0.5410    1.8614    0.9039 H         1 <0>         0.1031
     22 H3         -0.5579    1.8710   -0.8692 H         1 <0>         0.0901
     23 H4          1.3211    3.1961   -0.0995 H         1 <0>         0.1137
     24 H5          1.8950    1.8569    0.9280 H         1 <0>         0.0876
     25 H6          2.6038   -0.9330   -1.8640 H         1 <0>         0.1200
     26 H7          3.1413   -0.5035   -0.2196 H         1 <0>         0.1040
     27 H8         -4.4891   -3.0743    2.8441 H         1 <0>         0.1078
     28 H9         -5.1848   -3.0556    1.2058 H         1 <0>         0.1080
     29 H10        -3.6943   -4.9262    0.5515 H         1 <0>         0.0705
     30 H11        -2.9986   -4.9448    2.1898 H         1 <0>         0.0703
@<TRIPOS>BOND
     1    1    6 1
     2    1    2 1
     3    1   21 1
     4    1   22 1
     5    2    3 1
     6    2   23 1
     7    2   24 1
     8    3    4 1
     9    4    5 1
    10    4   25 1
    11    4   26 1
    12    5   15 1
    13    5    6 2
    14    6    7 1
    15    7   14 2
    16    7    8 1
    17    8    9 2
    18    8   10 am
    19   10   11 1
    20   10   12 1
    21   12   13 2
    22   12   16 1
    23   13   14 1
    24   14   15 1
    25   16   17 1
    26   16   27 1
    27   16   28 1
    28   17   18 1
    29   17   29 1
    30   17   30 1
    31   18   19 2
    32   18   20 1
@<TRIPOS>MOLECULE
ZINC49619169
   33    34     0     0     0
SMALL
USER_CHARGES

@<TRIPOS>ATOM
      1 C1         -0.0167    1.3812    0.0096 C.ar      1 <0>        -0.1589
      2 C2          1.1685    2.0945    0.0022 C.ar      1 <0>        -0.0633
      3 C3          2.3774    1.4301   -0.0134 C.ar      1 <0>        -0.0937
      4 C4          2.4046    0.0348   -0.0212 C.ar      1 <0>         0.0873
      5 C5          1.2073   -0.6807   -0.0132 C.ar      1 <0>        -0.1482
      6 C6          0.0021   -0.0041    0.0020 C.ar      1 <0>         0.0988
      7 F1         -1.1591   -0.6945    0.0094 F         1 <0>        -0.1427
      8 C7          3.6568   -0.6597   -0.0379 C.1       1 <0>        -0.1526
      9 C8          4.6834   -1.2291   -0.0515 C.1       1 <0>        -0.0988
     10 C9          5.9706   -1.9429   -0.0686 C.3       1 <0>        -0.0054
     11 C10         5.7170   -3.4517   -0.0741 C.3       1 <0>         0.0846
     12 O1          6.9666   -4.1448   -0.0908 O.3       1 <0>        -0.5725
     13 C11         3.6669    2.2100   -0.0226 C.3       1 <0>         0.1802
     14 N1          4.1951    2.2643   -1.3880 N.am      1 <0>        -0.3942
     15 C12         3.8441    3.2782   -2.2044 C.2       1 <0>         0.4841
     16 O2          3.0875    4.1515   -1.8100 O.2       1 <0>        -0.6026
     17 C13         4.3575    3.3228   -3.5165 C.2       1 <0>        -0.2068
     18 C14         5.1992    2.3400   -3.9354 C.2       1 <0>        -0.0876
     19 C15         5.5451    1.2960   -3.0576 C.2       1 <0>         0.3531
     20 O3          6.3856    0.3146   -3.4757 O.3       1 <0>        -0.7189
     21 N2          5.0671    1.2666   -1.8388 N.2       1 <0>        -0.3701
     22 H1         -0.9604    1.9062    0.0260 H         1 <0>         0.1350
     23 H2          1.1473    3.1743    0.0082 H         1 <0>         0.1422
     24 H3          1.2218   -1.7606   -0.0195 H         1 <0>         0.1354
     25 H4          6.5284   -1.6650   -0.9630 H         1 <0>         0.1111
     26 H5          6.5467   -1.6746    0.8169 H         1 <0>         0.0874
     27 H6          5.1592   -3.7297    0.8202 H         1 <0>         0.0431
     28 H7          5.1409   -3.7201   -0.9597 H         1 <0>         0.0531
     29 H8          6.8821   -5.1081   -0.0951 H         1 <0>         0.3781
     30 H9          3.4817    3.2225    0.3359 H         1 <0>         0.0947
     31 H10         4.3919    1.7210    0.6282 H         1 <0>         0.0921
     32 H11         4.0850    4.1286   -4.1821 H         1 <0>         0.1350
     33 H12         5.6002    2.3606   -4.9380 H         1 <0>         0.1210
@<TRIPOS>BOND
     1    1    6 ar
     2    1    2 ar
     3    1   22 1
     4    2    3 ar
     5    2   23 1
     6    3    4 ar
     7    3   13 1
     8    4    5 ar
     9    4    8 1
    10    5    6 ar
    11    5   24 1
    12    6    7 1
    13    8    9 3
    14    9   10 1
    15   10   11 1
    16   10   25 1
    17   10   26 1
    18   11   12 1
    19   11   27 1
    20   11   28 1
    21   12   29 1
    22   13   30 1
    23   13   31 1
    24   13   14 1
    25   14   21 1
    26   14   15 am
    27   15   17 1
    28   15   16 2
    29   17   18 2
    30   17   32 1
    31   18   19 1
    32   18   33 1
    33   19   21 2
    34   19   20 1
@<TRIPOS>MOLECULE
ZINC58279839
   42    44     0     0     0
SMALL
USER_CHARGES

@<TRIPOS>ATOM
      1 C1         -0.4821    1.4581    0.0323 C.3       1 <0>        -0.0790
      2 C2         -0.2155   -0.0250    0.0123 C.ar      1 <0>         0.3778
      3 N1         -0.2049   -0.6640   -1.1440 N.ar      1 <0>        -0.5806
      4 C3          0.0223   -1.9647   -1.2285 C.ar      1 <0>         0.4934
      5 C4          0.2635   -2.7041   -0.0372 C.ar      1 <0>        -0.2683
      6 C5          0.5340   -4.1348    0.1148 C.2       1 <0>        -0.0559
      7 C6          0.7306   -4.5901    1.3687 C.2       1 <0>        -0.1726
      8 S1          0.5706   -3.1638    2.4095 S.3       1 <0>         0.0775
      9 C7          0.2371   -1.9544    1.1557 C.ar      1 <0>         0.1627
     10 N2          0.0074   -0.6556    1.1491 N.ar      1 <0>        -0.5426
     11 C8          1.0206   -5.9993    1.7876 C.3       1 <0>        -0.0261
     12 C9          0.6951   -6.9312    0.6116 C.3       1 <0>        -0.0878
     13 H1         -0.3855   -6.9947    0.4835 H         1 <0>         0.0766
     14 C10         1.3303   -6.3581   -0.6587 C.3       1 <0>        -0.1106
     15 C11         0.5946   -5.0849   -1.0781 C.3       1 <0>        -0.0779
     16 C12         1.2618   -8.3250    0.8891 C.3       1 <0>        -0.1448
     17 N3          0.0247   -2.5973   -2.4586 N.pl3     1 <0>        -0.6594
     18 C13        -0.1015   -1.8098   -3.6875 C.3       1 <0>         0.0964
     19 C14        -1.4258   -1.0437   -3.6685 C.3       1 <0>        -0.1407
     20 C15         1.0600   -0.8182   -3.7794 C.3       1 <0>        -0.1362
     21 C16        -0.0712   -2.7310   -4.8798 C.2       1 <0>         0.5025
     22 O1          0.0451   -3.9338   -4.7180 O.co2     1 <0>        -0.6933
     23 O2         -0.1630   -2.2735   -6.0061 O.co2     1 <0>        -0.6777
     24 H2          0.4604    1.9980   -0.0592 H         1 <0>         0.0853
     25 H3         -1.1340    1.7213   -0.8007 H         1 <0>         0.0866
     26 H4         -0.9656    1.7277    0.9713 H         1 <0>         0.0835
     27 H5          2.0740   -6.0946    2.0508 H         1 <0>         0.0810
     28 H6          0.4021   -6.2617    2.6459 H         1 <0>         0.0787
     29 H7          2.3775   -6.1248   -0.4664 H         1 <0>         0.0661
     30 H8          1.2656   -7.0943   -1.4599 H         1 <0>         0.0740
     31 H9         -0.4171   -5.3356   -1.3970 H         1 <0>         0.0842
     32 H10         1.1303   -4.6074   -1.8985 H         1 <0>         0.0870
     33 H11         0.8167   -8.7234    1.8008 H         1 <0>         0.0552
     34 H12         1.0296   -8.9847    0.0530 H         1 <0>         0.0586
     35 H13         2.3430   -8.2599    1.0111 H         1 <0>         0.0559
     36 H14         0.1101   -3.5623   -2.5076 H         1 <0>         0.4204
     37 H15        -1.4478   -0.3774   -2.8061 H         1 <0>         0.0767
     38 H16        -1.5198   -0.4578   -4.5828 H         1 <0>         0.0633
     39 H17        -2.2533   -1.7502   -3.6030 H         1 <0>         0.0385
     40 H18         2.0034   -1.3640   -3.7930 H         1 <0>         0.0400
     41 H19         0.9660   -0.2323   -4.6937 H         1 <0>         0.0665
     42 H20         1.0380   -0.1519   -2.9171 H         1 <0>         0.0648
@<TRIPOS>BOND
     1    1    2 1
     2    1   24 1
     3    1   25 1
     4    1   26 1
     5    2   10 ar
     6    2    3 ar
     7    3    4 ar
     8    4    5 ar
     9    4   17 1
    10    5    9 ar
    11    5    6 1
    12    6   15 1
    13    6    7 2
    14    7    8 1
    15    7   11 1
    16    8    9 1
    17    9   10 ar
    18   11   12 1
    19   11   27 1
    20   11   28 1
    21   12   13 1
    22   12   14 1
    23   12   16 1
    24   14   15 1
    25   14   29 1
    26   14   30 1
    27   15   31 1
    28   15   32 1
    29   16   33 1
    30   16   34 1
    31   16   35 1
    32   17   18 1
    33   17   36 1
    34   18   19 1
    35   18   20 1
    36   18   21 1
    37   19   37 1
    38   19   38 1
    39   19   39 1
    40   20   40 1
    41   20   41 1
    42   20   42 1
    43   21   22 2
    44   21   23 1
@<TRIPOS>MOLECULE
ZINC20250049
   27    28     0     0     0
SMALL
USER_CHARGES
2-[2-[[2-(3-thienyl)acetyl]amino]thiazol-4-yl]acetic acid
@<TRIPOS>ATOM
      1 C1          1.0286    1.9437    0.0027 C.2       1 <0>        -0.1417
      2 C2         -0.0126    1.0758    0.0080 C.2       1 <0>        -0.1748
      3 S1         -1.4145    2.1811    0.0194 S.3       1 <0>         0.0339
      4 C3         -0.5179    3.7249    0.0255 C.2       1 <0>        -0.1550
      5 C4          0.7697    3.3014    0.0117 C.2       1 <0>        -0.1082
      6 C5          1.9018    4.2960    0.0067 C.3       1 <0>        -0.0775
      7 C6          2.2668    4.6345   -1.4157 C.2       1 <0>         0.5131
      8 O1          1.6666    4.1190   -2.3349 O.2       1 <0>        -0.4989
      9 N1          3.2601    5.5103   -1.6664 N.am      1 <0>        -0.6229
     10 C7          3.5967    5.8225   -2.9784 C.2       1 <0>         0.2810
     11 N2          4.5236    6.6494   -3.4216 N.2       1 <0>        -0.5007
     12 C8          4.7179    6.8288   -4.7135 C.2       1 <0>         0.1305
     13 C9          3.9322    6.1504   -5.5852 C.2       1 <0>        -0.2786
     14 S2          2.8997    5.2297   -4.4542 S.3       1 <0>         0.0994
     15 C10         5.7843    7.7711   -5.2091 C.3       1 <0>        -0.0999
     16 C11         5.5785    9.1312   -4.5936 C.2       1 <0>         0.4692
     17 O2          4.6601    9.3163   -3.8307 O.co2     1 <0>        -0.6226
     18 O3          6.4156   10.1369   -4.8929 O.co2     1 <0>        -0.7779
     19 H1          2.0454    1.5797   -0.0088 H         1 <0>         0.1326
     20 H2          0.0021   -0.0041    0.0020 H         1 <0>         0.1848
     21 H3         -0.9018    4.7344    0.0340 H         1 <0>         0.1853
     22 H4          1.5890    5.2102    0.5325 H         1 <0>         0.1126
     23 H5          2.7745    3.8608    0.5156 H         1 <0>         0.1109
     24 H6          3.8044    5.9780   -0.8327 H         1 <0>         0.4508
     25 H7          3.9309    6.1628   -6.6651 H         1 <0>         0.1892
     26 H8          6.7747    7.3861   -4.9248 H         1 <0>         0.0823
     27 H9          5.7226    7.8512   -6.3044 H         1 <0>         0.0829
@<TRIPOS>BOND
     1    1    5 1
     2    1    2 2
     3    1   19 1
     4    2    3 1
     5    2   20 1
     6    3    4 1
     7    4    5 2
     8    4   21 1
     9    5    6 1
    10    6    7 1
    11    6   22 1
    12    6   23 1
    13    7    8 2
    14    7    9 am
    15    9   10 1
    16    9   24 1
    17   10   14 1
    18   10   11 2
    19   11   12 1
    20   12   13 2
    21   12   15 1
    22   13   14 1
    23   13   25 1
    24   15   16 1
    25   15   26 1
    26   15   27 1
    27   16   17 2
    28   16   18 1
@<TRIPOS>MOLECULE
ZINC35721726
   38    40     0     0     0
SMALL
USER_CHARGES

@<TRIPOS>ATOM
      1 C1          0.1245    1.4428   -0.0811 C.ar      1 <0>        -0.0746
      2 C2          1.3318    2.1176   -0.1808 C.ar      1 <0>        -0.1847
      3 C3          2.5057    1.3914   -0.2455 C.ar      1 <0>         0.1003
      4 N1          2.4860    0.0731   -0.2138 N.ar      1 <0>        -0.4799
      5 C4          1.3570   -0.6015   -0.1196 C.ar      1 <0>         0.1436
      6 C5          0.1437    0.0570   -0.0501 C.ar      1 <0>        -0.1658
      7 C6          1.3899   -2.1078   -0.0877 C.3       1 <0>        -0.0829
      8 C7          2.1438   -2.6275   -1.3134 C.3       1 <0>         0.1425
      9 N2          2.1757   -4.0919   -1.2824 N.am      1 <0>        -0.7260
     10 C8          2.7914   -4.7735   -2.2687 C.2       1 <0>         0.5481
     11 O1          3.2456   -4.1801   -3.2239 O.2       1 <0>        -0.5370
     12 C9          2.9154   -6.2730   -2.1846 C.3       1 <0>        -0.0965
     13 H1          3.4087   -6.5642   -1.2572 H         1 <0>         0.0800
     14 C10         3.6940   -6.8297   -3.4189 C.3       1 <0>        -0.0511
     15 H2          4.7785   -6.7230   -3.3939 H         1 <0>         0.0889
     16 C11         3.1308   -8.2970   -3.4715 C.3       1 <0>        -0.1221
     17 C12         1.6376   -7.8173   -3.5858 C.3       1 <0>        -0.0617
     18 H3          0.8842   -8.5928   -3.7242 H         1 <0>         0.0878
     19 C13         1.5230   -6.9413   -2.2935 C.3       1 <0>        -0.1534
     20 H4          1.3282   -7.5654   -1.4213 H         1 <0>         0.0675
     21 C14         0.4461   -5.8992   -2.4521 C.2       1 <0>         0.4976
     22 O2          0.4349   -5.1790   -3.4358 O.co2     1 <0>        -0.6614
     23 O3         -0.4140   -5.7762   -1.5968 O.co2     1 <0>        -0.7047
     24 C15         1.7780   -6.7952   -4.7205 C.2       1 <0>        -0.1170
     25 C16         2.9768   -6.2082   -4.6236 C.2       1 <0>        -0.1623
     26 H5         -0.8084    1.9842   -0.0245 H         1 <0>         0.1329
     27 H6          1.3544    3.1970   -0.2080 H         1 <0>         0.1316
     28 H7          3.4501    1.9094   -0.3233 H         1 <0>         0.1537
     29 H8         -0.7777   -0.5011    0.0273 H         1 <0>         0.1375
     30 H9          1.8959   -2.4411    0.8184 H         1 <0>         0.0856
     31 H10         0.3705   -2.4937   -0.0975 H         1 <0>         0.0913
     32 H11         1.6378   -2.2942   -2.2195 H         1 <0>         0.0606
     33 H12         3.1631   -2.2416   -1.3036 H         1 <0>         0.0666
     34 H13         1.7537   -4.5708   -0.5521 H         1 <0>         0.3986
     35 H14         3.4636   -8.8406   -4.3558 H         1 <0>         0.0698
     36 H15         3.3222   -8.8510   -2.5525 H         1 <0>         0.0660
     37 H16         1.0323   -6.5784   -5.4711 H         1 <0>         0.1120
     38 H17         3.3796   -5.4459   -5.2740 H         1 <0>         0.1186
@<TRIPOS>BOND
     1    1    6 ar
     2    1    2 ar
     3    1   26 1
     4    2    3 ar
     5    2   27 1
     6    3    4 ar
     7    3   28 1
     8    4    5 ar
     9    5    6 ar
    10    5    7 1
    11    6   29 1
    12    7    8 1
    13    7   30 1
    14    7   31 1
    15    8    9 1
    16    8   32 1
    17    8   33 1
    18    9   10 am
    19    9   34 1
    20   10   11 2
    21   10   12 1
    22   12   13 1
    23   12   19 1
    24   12   14 1
    25   14   15 1
    26   14   25 1
    27   14   16 1
    28   16   17 1
    29   16   35 1
    30   16   36 1
    31   17   18 1
    32   17   19 1
    33   17   24 1
    34   19   20 1
    35   19   21 1
    36   21   22 2
    37   21   23 1
    38   24   25 2
    39   24   37 1
    40   25   38 1
@<TRIPOS>MOLECULE
ZINC40562741
   48    49     0     0     0
SMALL
USER_CHARGES

@<TRIPOS>ATOM
      1 C1          0.0470    1.5343    0.0291 C.3       1 <0>        -0.1453
      2 C2          0.0432    0.0044    0.0116 C.3       1 <0>        -0.1457
      3 C3          0.7616   -0.5216    1.2558 C.3       1 <0>         0.1379
      4 N1          0.7580   -1.9865    1.2390 N.am      1 <0>        -0.6105
      5 C4          1.8558   -2.7144    0.5977 C.3       1 <0>         0.0828
      6 C5          3.0071   -1.8897    0.0187 C.3       1 <0>        -0.1876
      7 C6          2.0078   -2.5715   -0.9180 C.3       1 <0>        -0.1951
      8 C7         -0.2552   -2.6646    1.8135 C.2       1 <0>         0.7249
      9 O1         -1.2103   -2.0629    2.2654 O.2       1 <0>        -0.5672
     10 N2         -0.2098   -4.0095    1.8872 N.am      1 <0>        -0.7126
     11 C8         -1.3572   -4.7535    2.4127 C.3       1 <0>         0.1292
     12 C9         -1.6346   -4.3137    3.8516 C.3       1 <0>        -0.1141
     13 C10        -0.4047   -4.5951    4.7170 C.3       1 <0>        -0.1047
     14 C11        -0.0956   -6.0934    4.6923 C.3       1 <0>        -0.0865
     15 C12         0.1818   -6.5332    3.2534 C.3       1 <0>        -0.1096
     16 C13        -1.0482   -6.2518    2.3879 C.3       1 <0>        -0.1056
     17 C14         1.1343   -6.3748    5.5577 C.3       1 <0>        -0.1172
     18 C15         1.3694   -7.8847    5.6342 C.3       1 <0>        -0.1522
     19 C16        -2.5686   -4.4764    1.5603 C.2       1 <0>         0.4998
     20 O2         -2.4816   -3.7268    0.6026 O.co2     1 <0>        -0.6755
     21 O3         -3.6358   -5.0017    1.8283 O.co2     1 <0>        -0.7039
     22 H1          1.0755    1.8951    0.0346 H         1 <0>         0.0482
     23 H2         -0.4648    1.9091   -0.8573 H         1 <0>         0.0526
     24 H3         -0.4672    1.8887    0.9226 H         1 <0>         0.0546
     25 H4         -0.9853   -0.3563    0.0061 H         1 <0>         0.0763
     26 H5          0.5573   -0.3499   -0.8818 H         1 <0>         0.0588
     27 H6          1.7901   -0.1608    1.2613 H         1 <0>         0.0678
     28 H7          0.2475   -0.1672    2.1492 H         1 <0>         0.0793
     29 H8          2.1006   -3.6804    1.0392 H         1 <0>         0.1168
     30 H9          2.9477   -0.8056    0.1149 H         1 <0>         0.0997
     31 H10         4.0097   -2.3130    0.0793 H         1 <0>         0.0982
     32 H11         2.3530   -3.4435   -1.4736 H         1 <0>         0.0962
     33 H12         1.2910   -1.9360   -1.4380 H         1 <0>         0.1002
     34 H13         0.5827   -4.4849    1.5923 H         1 <0>         0.3775
     35 H14        -1.8548   -3.2463    3.8692 H         1 <0>         0.0806
     36 H15        -2.4883   -4.8673    4.2425 H         1 <0>         0.0647
     37 H16         0.4490   -4.0416    4.3261 H         1 <0>         0.0539
     38 H17        -0.6023   -4.2818    5.7421 H         1 <0>         0.0498
     39 H18        -0.9494   -6.6470    5.0832 H         1 <0>         0.0682
     40 H19         1.0355   -5.9797    2.8624 H         1 <0>         0.0527
     41 H20         0.4019   -7.6006    3.2357 H         1 <0>         0.0583
     42 H21        -1.9019   -6.8054    2.7789 H         1 <0>         0.0796
     43 H22        -0.8505   -6.5652    1.3628 H         1 <0>         0.0566
     44 H23         2.0069   -5.8931    5.1165 H         1 <0>         0.0568
     45 H24         0.9704   -5.9813    6.5609 H         1 <0>         0.0568
     46 H25         1.5333   -8.2782    4.6310 H         1 <0>         0.0558
     47 H26         2.2457   -8.0852    6.2507 H         1 <0>         0.0468
     48 H27         0.4968   -8.3664    6.0753 H         1 <0>         0.0521
@<TRIPOS>BOND
     1    1    2 1
     2    1   22 1
     3    1   23 1
     4    1   24 1
     5    2    3 1
     6    2   25 1
     7    2   26 1
     8    3    4 1
     9    3   27 1
    10    3   28 1
    11    4    5 1
    12    4    8 am
    13    5    7 1
    14    5    6 1
    15    5   29 1
    16    6    7 1
    17    6   30 1
    18    6   31 1
    19    7   32 1
    20    7   33 1
    21    8    9 2
    22    8   10 am
    23   10   11 1
    24   10   34 1
    25   11   16 1
    26   11   12 1
    27   11   19 1
    28   12   13 1
    29   12   35 1
    30   12   36 1
    31   13   14 1
    32   13   37 1
    33   13   38 1
    34   14   15 1
    35   14   17 1
    36   14   39 1
    37   15   16 1
    38   15   40 1
    39   15   41 1
    40   16   42 1
    41   16   43 1
    42   17   18 1
    43   17   44 1
    44   17   45 1
    45   18   46 1
    46   18   47 1
    47   18   48 1
    48   19   20 2
    49   19   21 1
@<TRIPOS>MOLECULE
ZINC43413101
   42    43     0     0     0
SMALL
USER_CHARGES

@<TRIPOS>ATOM
      1 C1         -0.6152    2.0115   -5.9214 C.ar      1 <0>        -0.1594
      2 C2          0.5285    2.7871   -5.9420 C.ar      1 <0>         0.0971
      3 N1          0.7436    3.6966   -5.0117 N.ar      1 <0>        -0.4899
      4 C3         -0.1148    3.9030   -4.0321 C.ar      1 <0>         0.0978
      5 C4         -1.2806    3.1657   -3.9467 C.ar      1 <0>        -0.1587
      6 C5         -1.5411    2.1999   -4.9068 C.ar      1 <0>        -0.0157
      7 C6         -2.8009    1.3750   -4.8491 C.3       1 <0>        -0.1095
      8 C7         -2.5497    0.1304   -4.0373 C.2       1 <0>         0.5115
      9 O1         -1.4553   -0.0672   -3.5533 O.2       1 <0>        -0.5418
     10 N2         -3.5410   -0.7631   -3.8492 N.am      1 <0>        -0.7173
     11 C8         -3.2968   -1.9730   -3.0601 C.3       1 <0>         0.1234
     12 C9         -4.6080   -2.7420   -2.8864 C.3       1 <0>        -0.0380
     13 C10        -4.3633   -3.9778   -2.0182 C.3       1 <0>        -0.1166
     14 C11        -3.3289   -4.8796   -2.6946 C.3       1 <0>        -0.1177
     15 C12        -3.8505   -5.3147   -4.0656 C.3       1 <0>        -0.1138
     16 C13        -4.0951   -4.0789   -4.9339 C.3       1 <0>        -0.1161
     17 C14        -5.1295   -3.1770   -4.2574 C.3       1 <0>        -0.1179
     18 C15        -5.6424   -1.8401   -2.2100 C.3       1 <0>        -0.1752
     19 C16        -6.9137   -2.6167   -1.9825 C.2       1 <0>         0.4939
     20 O2         -7.0242   -3.7480   -2.4234 O.co2     1 <0>        -0.6820
     21 O3         -7.8317   -2.1137   -1.3574 O.co2     1 <0>        -0.7057
     22 H1         -0.7877    1.2711   -6.6886 H         1 <0>         0.1323
     23 H2          1.2546    2.6466   -6.7290 H         1 <0>         0.1542
     24 H3          0.0959    4.6567   -3.2878 H         1 <0>         0.1547
     25 H4         -1.9798    3.3394   -3.1420 H         1 <0>         0.1334
     26 H5         -3.5959    1.9578   -4.3839 H         1 <0>         0.1080
     27 H6         -3.0989    1.0956   -5.8597 H         1 <0>         0.1068
     28 H7         -4.4163   -0.6050   -4.2364 H         1 <0>         0.4017
     29 H8         -2.5717   -2.6028   -3.5756 H         1 <0>         0.0677
     30 H9         -2.9059   -1.6955   -2.0811 H         1 <0>         0.0607
     31 H10        -3.9918   -3.6678   -1.0415 H         1 <0>         0.0437
     32 H11        -5.2975   -4.5256   -1.8945 H         1 <0>         0.1119
     33 H12        -2.3948   -4.3318   -2.8184 H         1 <0>         0.0508
     34 H13        -3.1546   -5.7600   -2.0761 H         1 <0>         0.0532
     35 H14        -3.1135   -5.9572   -4.5476 H         1 <0>         0.0473
     36 H15        -4.7846   -5.8625   -3.9419 H         1 <0>         0.0665
     37 H16        -3.1610   -3.5310   -5.0576 H         1 <0>         0.0499
     38 H17        -4.4667   -4.3888   -5.9106 H         1 <0>         0.0512
     39 H18        -6.0637   -3.7249   -4.1337 H         1 <0>         0.1123
     40 H19        -5.3038   -2.2966   -4.8760 H         1 <0>         0.0375
     41 H20        -5.2520   -1.4937   -1.2530 H         1 <0>         0.0551
     42 H21        -5.8502   -0.9823   -2.8495 H         1 <0>         0.0523
@<TRIPOS>BOND
     1    1    6 ar
     2    1    2 ar
     3    1   22 1
     4    2    3 ar
     5    2   23 1
     6    3    4 ar
     7    4    5 ar
     8    4   24 1
     9    5    6 ar
    10    5   25 1
    11    6    7 1
    12    7    8 1
    13    7   26 1
    14    7   27 1
    15    8    9 2
    16    8   10 am
    17   10   11 1
    18   10   28 1
    19   11   12 1
    20   11   29 1
    21   11   30 1
    22   12   17 1
    23   12   13 1
    24   12   18 1
    25   13   14 1
    26   13   31 1
    27   13   32 1
    28   14   15 1
    29   14   33 1
    30   14   34 1
    31   15   16 1
    32   15   35 1
    33   15   36 1
    34   16   17 1
    35   16   37 1
    36   16   38 1
    37   17   39 1
    38   17   40 1
    39   18   19 1
    40   18   41 1
    41   18   42 1
    42   19   20 2
    43   19   21 1
@<TRIPOS>MOLECULE
ZINC50222499
   27    28     0     0     0
SMALL
USER_CHARGES

@<TRIPOS>ATOM
      1 C1         -0.0704    1.3943    0.0164 C.2       1 <0>        -0.1406
      2 C2          1.1225    2.0936    0.0100 C.2       1 <0>        -0.1327
      3 C3          2.2894    1.4020   -0.0045 C.2       1 <0>        -0.1267
      4 S1          1.7164   -0.2888   -0.0096 S.3       1 <0>         0.1080
      5 C4         -0.0382    0.0396    0.0080 C.2       1 <0>        -0.1107
      6 C5         -1.1862   -0.9367    0.0123 C.3       1 <0>        -0.0304
      7 S2         -1.6621   -1.3182   -1.6961 S.3       1 <0>        -0.1817
      8 C6         -3.0361   -2.4890   -1.5179 C.3       1 <0>        -0.0909
      9 C7         -3.5323   -2.8925   -2.8825 C.2       1 <0>         0.5038
     10 O1         -3.0093   -2.4342   -3.8795 O.2       1 <0>        -0.5984
     11 N1         -4.5430   -3.7505   -2.9959 N.2       1 <0>        -0.6699
     12 C8         -5.0501   -4.0263   -4.1945 C.2       1 <0>         0.6556
     13 N2         -4.5299   -3.5658   -5.3725 N.pl3     1 <0>        -0.7452
     14 C9         -5.4000   -4.1126   -6.4299 C.3       1 <0>         0.0213
     15 C10        -6.4320   -4.9106   -5.6594 C.2       1 <0>         0.4561
     16 O2         -7.4561   -5.6086   -6.1754 O.3       1 <0>        -0.6251
     17 N3         -6.1264   -4.7916   -4.3954 N.2       1 <0>        -0.6270
     18 Cl1         3.9174    2.0047   -0.0154 Cl        1 <0>         0.0115
     19 H1         -1.0137    1.9199    0.0324 H         1 <0>         0.1447
     20 H2          1.1251    3.1736    0.0161 H         1 <0>         0.1421
     21 H3         -0.8819   -1.8531    0.5180 H         1 <0>         0.0976
     22 H4         -2.0349   -0.4973    0.5364 H         1 <0>         0.1061
     23 H5         -2.6929   -3.3728   -0.9801 H         1 <0>         0.1050
     24 H6         -3.8459   -2.0170   -0.9617 H         1 <0>         0.1052
     25 H7         -5.8765   -3.3077   -6.9895 H         1 <0>         0.0956
     26 H8         -4.8323   -4.7616   -7.0968 H         1 <0>         0.0966
     27 H9         -3.7518   -2.9984   -5.4881 H         1 <0>         0.4301
@<TRIPOS>BOND
     1    1    5 2
     2    1    2 1
     3    1   19 1
     4    2    3 2
     5    2   20 1
     6    3    4 1
     7    3   18 1
     8    4    5 1
     9    5    6 1
    10    6    7 1
    11    6   21 1
    12    6   22 1
    13    7    8 1
    14    8    9 1
    15    8   23 1
    16    8   24 1
    17    9   10 2
    18    9   11 1
    19   11   12 2
    20   12   13 1
    21   12   17 1
    22   13   14 1
    23   13   27 1
    24   14   15 1
    25   14   25 1
    26   14   26 1
    27   15   16 1
    28   15   17 2
@<TRIPOS>MOLECULE
ZINC20527113
   31    32     0     0     0
SMALL
USER_CHARGES
(E)-3-[4-(3-oxopiperazin-1-yl)phenyl]prop-2-enoic acid
@<TRIPOS>ATOM
      1 C1         -0.0126    1.0758    0.0080 C.ar      1 <0>        -0.0901
      2 C2         -1.2084    1.7461    0.0173 C.ar      1 <0>        -0.1638
      3 C3         -1.2284    3.1384    0.0303 C.ar      1 <0>         0.0831
      4 C4         -0.0350    3.8560    0.0232 C.ar      1 <0>        -0.1284
      5 C5          1.1652    3.1939    0.0081 C.ar      1 <0>        -0.0941
      6 C6          1.1901    1.7936    0.0003 C.ar      1 <0>        -0.0511
      7 C7          2.4736    1.0798   -0.0153 C.2       1 <0>        -0.1170
      8 C8          3.6331    1.7744   -0.0227 C.2       1 <0>        -0.1442
      9 C9          4.8715    1.0857   -0.0378 C.2       1 <0>         0.4691
     10 O1          4.8910   -0.1307   -0.0441 O.co2     1 <0>        -0.6380
     11 O2          6.0291    1.7791   -0.0451 O.co2     1 <0>        -0.7652
     12 N1         -2.4439    3.8143    0.0456 N.pl3     1 <0>        -0.4794
     13 C10        -3.5728    2.8701    0.0252 C.3       1 <0>         0.0236
     14 C11        -4.8574    3.6336    0.3532 C.3       1 <0>         0.1193
     15 N2         -4.9629    4.8210   -0.4900 N.am      1 <0>        -0.7308
     16 C12        -3.9181    5.3482   -1.1368 C.2       1 <0>         0.5254
     17 O3         -4.0879    6.3547   -1.7919 O.2       1 <0>        -0.5541
     18 C13        -2.5424    4.7462   -1.0858 C.3       1 <0>         0.0365
     19 H1          0.0021   -0.0041    0.0020 H         1 <0>         0.1262
     20 H2         -2.1363    1.1934    0.0186 H         1 <0>         0.1255
     21 H3         -0.0551    4.9358    0.0292 H         1 <0>         0.1241
     22 H4          2.0903    3.7512    0.0019 H         1 <0>         0.1320
     23 H5          2.4913   -0.0200   -0.0210 H         1 <0>         0.1308
     24 H6          3.6154    2.8742   -0.0170 H         1 <0>         0.1082
     25 H7         -3.6529    2.4159   -0.9735 H         1 <0>         0.0571
     26 H8         -3.4052    2.0820    0.7740 H         1 <0>         0.1084
     27 H9         -5.7264    2.9837    0.1728 H         1 <0>         0.0843
     28 H10        -4.8421    3.9405    1.4094 H         1 <0>         0.0759
     29 H11        -5.9340    5.3224   -0.6148 H         1 <0>         0.4231
     30 H12        -1.8001    5.5490   -0.9653 H         1 <0>         0.1211
     31 H13        -2.3487    4.2056   -2.0240 H         1 <0>         0.0826
@<TRIPOS>BOND
     1    1    6 ar
     2    1    2 ar
     3    1   19 1
     4    2    3 ar
     5    2   20 1
     6    3    4 ar
     7    3   12 1
     8    4    5 ar
     9    4   21 1
    10    5    6 ar
    11    5   22 1
    12    6    7 1
    13    7    8 2
    14    7   23 1
    15    8    9 1
    16    8   24 1
    17    9   10 2
    18    9   11 1
    19   12   18 1
    20   12   13 1
    21   13   14 1
    22   13   25 1
    23   13   26 1
    24   14   15 1
    25   14   27 1
    26   14   28 1
    27   15   16 am
    28   15   29 1
    29   16   17 2
    30   16   18 1
    31   18   30 1
    32   18   31 1
@<TRIPOS>MOLECULE
ZINC40531013
   41    41     0     0     0
SMALL
USER_CHARGES

@<TRIPOS>ATOM
      1 C1         -3.0074   -2.5147    2.1567 C.3       1 <0>        -0.1433
      2 C2         -1.5807   -1.9821    2.3034 C.3       1 <0>        -0.1117
      3 H1         -1.1918   -2.2493    3.2860 H         1 <0>         0.0803
      4 C3         -1.5860   -0.4591    2.1530 C.3       1 <0>        -0.1090
      5 C4         -0.1641    0.0778    2.3322 C.3       1 <0>        -0.1376
      6 C5          0.7409   -0.5121    1.2460 C.3       1 <0>         0.1332
      7 N1          0.6391   -1.9771    1.2900 N.am      1 <0>        -0.6350
      8 C6         -0.6915   -2.5960    1.2174 C.3       1 <0>         0.1226
      9 C7          1.7456   -2.7395    1.3950 C.2       1 <0>         0.7130
     10 O1          2.8455   -2.2223    1.3621 O.2       1 <0>        -0.5971
     11 N2          1.6328   -4.0751    1.5364 N.am      1 <0>        -0.7087
     12 C8          2.8283   -4.8913    1.7620 C.3       1 <0>         0.1004
     13 H2          3.6668   -4.4683    1.2087 H         1 <0>         0.0788
     14 C9          3.1546   -4.9083    3.2331 C.2       1 <0>         0.4948
     15 O2          2.3608   -4.4533    4.0390 O.co2     1 <0>        -0.6889
     16 O3          4.2124   -5.3771    3.6175 O.co2     1 <0>        -0.6950
     17 C10         2.5685   -6.3202    1.2806 C.3       1 <0>        -0.0619
     18 C11         2.2372   -6.3029   -0.2130 C.3       1 <0>        -0.1348
     19 C12         3.8170   -7.1726    1.5163 C.3       1 <0>        -0.1381
     20 C13         1.3915   -6.9139    2.0573 C.3       1 <0>        -0.1340
     21 H3         -3.0030   -3.5996    2.2627 H         1 <0>         0.0567
     22 H4         -3.6399   -2.0768    2.9288 H         1 <0>         0.0561
     23 H5         -3.3959   -2.2473    1.1740 H         1 <0>         0.0535
     24 H6         -1.9522   -0.1934    1.1614 H         1 <0>         0.0603
     25 H7         -2.2374   -0.0218    2.9097 H         1 <0>         0.0613
     26 H8         -0.1724    1.1646    2.2483 H         1 <0>         0.0704
     27 H9          0.2119   -0.2088    3.3143 H         1 <0>         0.0690
     28 H10         0.4201   -0.1527    0.2683 H         1 <0>         0.0563
     29 H11         1.7729   -0.2118    1.4275 H         1 <0>         0.0907
     30 H12        -0.6049   -3.6703    1.3801 H         1 <0>         0.0743
     31 H13        -1.1289   -2.4070    0.2370 H         1 <0>         0.0613
     32 H14         0.7601   -4.4958    1.4888 H         1 <0>         0.3844
     33 H15         3.0757   -5.8799   -0.7662 H         1 <0>         0.0510
     34 H16         2.0521   -7.3208   -0.5559 H         1 <0>         0.0489
     35 H17         1.3477   -5.6956   -0.3808 H         1 <0>         0.0470
     36 H18         4.0530   -7.1850    2.5803 H         1 <0>         0.0884
     37 H19         3.6319   -8.1906    1.1733 H         1 <0>         0.0393
     38 H20         4.6555   -6.7496    0.9630 H         1 <0>         0.0480
     39 H21         0.5021   -6.3066    1.8894 H         1 <0>         0.0427
     40 H22         1.2064   -7.9319    1.7143 H         1 <0>         0.0472
     41 H23         1.6275   -6.9262    3.1213 H         1 <0>         0.0653
@<TRIPOS>BOND
     1    1    2 1
     2    1   21 1
     3    1   22 1
     4    1   23 1
     5    2    3 1
     6    2    8 1
     7    2    4 1
     8    4    5 1
     9    4   24 1
    10    4   25 1
    11    5    6 1
    12    5   26 1
    13    5   27 1
    14    6    7 1
    15    6   28 1
    16    6   29 1
    17    7    8 1
    18    7    9 am
    19    8   30 1
    20    8   31 1
    21    9   10 2
    22    9   11 am
    23   11   12 1
    24   11   32 1
    25   12   13 1
    26   12   14 1
    27   12   17 1
    28   14   15 2
    29   14   16 1
    30   17   18 1
    31   17   19 1
    32   17   20 1
    33   18   33 1
    34   18   34 1
    35   18   35 1
    36   19   36 1
    37   19   37 1
    38   19   38 1
    39   20   39 1
    40   20   40 1
    41   20   41 1
@<TRIPOS>MOLECULE
ZINC42870242
   42    43     0     0     0
SMALL
USER_CHARGES

@<TRIPOS>ATOM
      1 C1         -0.0187    1.5258    0.0104 C.3       1 <0>        -0.1568
      2 C2          0.0021   -0.0041    0.0020 C.3       1 <0>        -0.0821
      3 H1          0.5123   -0.3556   -0.8948 H         1 <0>         0.0712
      4 C3         -1.4333   -0.5336    0.0129 C.3       1 <0>        -0.1118
      5 C4         -2.1494   -0.0402    1.2717 C.3       1 <0>        -0.1219
      6 C5         -1.4095   -0.5471    2.5112 C.3       1 <0>        -0.1176
      7 C6          0.0259   -0.0175    2.5003 C.3       1 <0>        -0.1180
      8 C7          0.7421   -0.5109    1.2415 C.3       1 <0>        -0.0912
      9 H2          0.7568   -1.6008    1.2356 H         1 <0>         0.0729
     10 C8          2.1775    0.0187    1.2307 C.3       1 <0>         0.1453
     11 N1          2.9206   -0.5616    2.3520 N.am      1 <0>        -0.7522
     12 C9          4.2145   -0.2366    2.5431 C.2       1 <0>         0.7286
     13 O1          4.7651    0.5383    1.7849 O.2       1 <0>        -0.5774
     14 N2          4.8981   -0.7704    3.5747 N.am      1 <0>        -0.6081
     15 C10         4.3585   -1.7233    4.5617 C.3       1 <0>         0.1037
     16 C11         5.5980   -2.4798    5.1013 C.3       1 <0>        -0.1317
     17 C12         6.6604   -1.3496    5.1397 C.3       1 <0>        -0.1060
     18 C13         6.3073   -0.5039    3.8982 C.3       1 <0>         0.0830
     19 H3          6.9411   -0.7913    3.0592 H         1 <0>         0.0643
     20 C14         6.4943    0.9590    4.2079 C.2       1 <0>         0.4954
     21 O2          5.5230    1.6878    4.3179 O.co2     1 <0>        -0.6779
     22 O3          7.6167    1.4138    4.3484 O.co2     1 <0>        -0.7050
     23 H4          1.0039    1.9031    0.0027 H         1 <0>         0.0617
     24 H5         -0.5459    1.8868   -0.8726 H         1 <0>         0.0513
     25 H6         -0.5289    1.8773    0.9072 H         1 <0>         0.0616
     26 H7         -1.9605   -0.1726   -0.8702 H         1 <0>         0.0604
     27 H8         -1.4185   -1.6235    0.0069 H         1 <0>         0.0597
     28 H9         -2.1642    1.0497    1.2777 H         1 <0>         0.0652
     29 H10        -3.1720   -0.4175    1.2794 H         1 <0>         0.0566
     30 H11        -1.9196   -0.1955    3.4080 H         1 <0>         0.0596
     31 H12        -1.3947   -1.6369    2.5052 H         1 <0>         0.0590
     32 H13         0.0111    1.0724    2.5063 H         1 <0>         0.0693
     33 H14         0.5531   -0.3786    3.3834 H         1 <0>         0.0624
     34 H15         2.6597   -0.2580    0.2932 H         1 <0>         0.0588
     35 H16         2.1649    1.1044    1.3262 H         1 <0>         0.0661
     36 H17         2.4813   -1.1798    2.9568 H         1 <0>         0.3871
     37 H18         3.8582   -1.1897    5.3699 H         1 <0>         0.0606
     38 H19         3.6696   -2.4179    4.0811 H         1 <0>         0.0602
     39 H20         5.4108   -2.8741    6.1001 H         1 <0>         0.0763
     40 H21         5.8980   -3.2750    4.4189 H         1 <0>         0.0702
     41 H22         6.5642   -0.7608    6.0520 H         1 <0>         0.0720
     42 H23         7.6654   -1.7619    5.0496 H         1 <0>         0.0753
@<TRIPOS>BOND
     1    1    2 1
     2    1   23 1
     3    1   24 1
     4    1   25 1
     5    2    3 1
     6    2    8 1
     7    2    4 1
     8    4    5 1
     9    4   26 1
    10    4   27 1
    11    5    6 1
    12    5   28 1
    13    5   29 1
    14    6    7 1
    15    6   30 1
    16    6   31 1
    17    7    8 1
    18    7   32 1
    19    7   33 1
    20    8    9 1
    21    8   10 1
    22   10   11 1
    23   10   34 1
    24   10   35 1
    25   11   12 am
    26   11   36 1
    27   12   13 2
    28   12   14 am
    29   14   18 1
    30   14   15 1
    31   15   16 1
    32   15   37 1
    33   15   38 1
    34   16   17 1
    35   16   39 1
    36   16   40 1
    37   17   18 1
    38   17   41 1
    39   17   42 1
    40   18   19 1
    41   18   20 1
    42   20   21 2
    43   20   22 1
@<TRIPOS>MOLECULE
ZINC54335992
   33    33     0     0     0
SMALL
USER_CHARGES

@<TRIPOS>ATOM
      1 C1          0.0074    1.3390   -0.1697 C.3       1 <0>        -0.1211
      2 C2          0.2177   -0.1604   -0.3902 C.3       1 <0>        -0.1715
      3 H1          0.8406   -0.3143   -1.2713 H         1 <0>         0.0655
      4 C3          0.9083   -0.7640    0.8344 C.3       1 <0>         0.1587
      5 N1          2.2537   -0.1990    0.9643 N.am      1 <0>        -0.7344
      6 C4          3.0524   -0.5867    1.9783 C.2       1 <0>         0.7021
      7 O1          2.6563   -1.4054    2.7853 O.2       1 <0>        -0.5895
      8 N2          4.2901   -0.0669    2.0978 N.am      1 <0>        -0.6346
      9 C5          4.7673    0.9195    1.1255 C.3       1 <0>         0.0708
     10 C6          5.1583   -0.4883    3.2000 C.3       1 <0>         0.1488
     11 H2          4.5764   -1.1043    3.8857 H         1 <0>         0.1181
     12 C7          6.2978   -1.3321    2.6306 C.3       1 <0>        -0.1372
     13 C8          7.5065   -0.4271    2.2621 C.3       1 <0>        -0.0638
     14 S1          7.4624    0.7420    3.6910 S.3       1 <0>        -0.3079
     15 C9          5.6438    0.7655    3.9534 C.3       1 <0>        -0.0700
     16 C10        -1.1168   -0.8300   -0.5953 C.2       1 <0>         0.5018
     17 O2         -1.2355   -1.7092   -1.4315 O.co2     1 <0>        -0.6970
     18 O3         -2.0776   -0.4924    0.0751 O.co2     1 <0>        -0.6901
     19 H3          0.9726    1.8232   -0.0214 H         1 <0>         0.0320
     20 H4         -0.4846    1.7690   -1.0421 H         1 <0>         0.0473
     21 H5         -0.6155    1.4928    0.7114 H         1 <0>         0.0606
     22 H6          0.3294   -0.5332    1.7286 H         1 <0>         0.0677
     23 H7          0.9782   -1.8453    0.7159 H         1 <0>         0.0626
     24 H8          2.5697    0.4541    0.3205 H         1 <0>         0.3928
     25 H9          4.4321    1.9134    1.4218 H         1 <0>         0.0563
     26 H10         5.8566    0.8986    1.0915 H         1 <0>         0.0763
     27 H11         4.3684    0.6804    0.1397 H         1 <0>         0.0686
     28 H12         6.6099   -2.0655    3.3742 H         1 <0>         0.0886
     29 H13         5.9506   -1.8514    1.7374 H         1 <0>         0.0886
     30 H14         8.4366   -0.9951    2.2420 H         1 <0>         0.1091
     31 H15         7.3407    0.0924    1.3183 H         1 <0>         0.0928
     32 H16         5.2057    1.6663    3.5235 H         1 <0>         0.1001
     33 H17         5.4091    0.6913    5.0152 H         1 <0>         0.1080
@<TRIPOS>BOND
     1    1    2 1
     2    1   19 1
     3    1   20 1
     4    1   21 1
     5    2    3 1
     6    2    4 1
     7    2   16 1
     8    4    5 1
     9    4   22 1
    10    4   23 1
    11    5    6 am
    12    5   24 1
    13    6    7 2
    14    6    8 am
    15    8    9 1
    16    8   10 1
    17    9   25 1
    18    9   26 1
    19    9   27 1
    20   10   11 1
    21   10   15 1
    22   10   12 1
    23   12   13 1
    24   12   28 1
    25   12   29 1
    26   13   14 1
    27   13   30 1
    28   13   31 1
    29   14   15 1
    30   15   32 1
    31   15   33 1
    32   16   17 2
    33   16   18 1
@<TRIPOS>MOLECULE
ZINC62715999
   39    40     0     0     0
SMALL
USER_CHARGES

@<TRIPOS>ATOM
      1 C1         -0.1023    1.5375    0.0234 C.3       1 <0>        -0.1498
      2 C2         -0.0732    0.0078    0.0122 C.3       1 <0>        -0.1193
      3 C3          0.4899   -0.4818   -1.3235 C.3       1 <0>        -0.1401
      4 C4          0.8132   -0.4938    1.1539 C.3       1 <0>         0.3850
      5 H1          1.7969   -0.0307    1.0772 H         1 <0>         0.1045
      6 N1          0.9533   -1.9518    1.0558 N.pl3     1 <0>        -0.7463
      7 C5         -0.1137   -2.7496    1.4526 C.ar      1 <0>         0.2375
      8 C6         -0.3535   -3.9887    0.8844 C.ar      1 <0>        -0.1877
      9 C7         -1.4310   -4.7403    1.3129 C.ar      1 <0>        -0.0579
     10 C8         -2.2723   -4.2636    2.3061 C.ar      1 <0>        -0.1775
     11 C9         -2.0466   -3.0312    2.8836 C.ar      1 <0>        -0.0225
     12 C10        -0.9637   -2.2639    2.4622 C.ar      1 <0>        -0.1961
     13 C11        -0.6716   -0.9443    3.0507 C.2       1 <0>         0.5671
     14 O1         -1.2165   -0.5960    4.0805 O.2       1 <0>        -0.5345
     15 N2          0.2056   -0.1309    2.4341 N.am      1 <0>        -0.6127
     16 C12         0.5568    1.1460    3.0604 C.3       1 <0>         0.1059
     17 C13         1.8120    0.9659    3.9166 C.3       1 <0>        -0.1041
     18 C14         2.2492    2.3226    4.4725 C.3       1 <0>        -0.1802
     19 C15         3.4856    2.1452    5.3157 C.2       1 <0>         0.4896
     20 O2          3.9719    1.0363    5.4588 O.co2     1 <0>        -0.6986
     21 O3          3.9994    3.1104    5.8549 O.co2     1 <0>        -0.7074
     22 H2          0.9182    1.9203    0.0186 H         1 <0>         0.0601
     23 H3         -0.6295    1.8974   -0.8601 H         1 <0>         0.0587
     24 H4         -0.6164    1.8846    0.9197 H         1 <0>         0.0622
     25 H5         -1.0852   -0.3758    0.1424 H         1 <0>         0.0734
     26 H6          1.5018   -0.0982   -1.4537 H         1 <0>         0.0561
     27 H7          0.5106   -1.5716   -1.3315 H         1 <0>         0.0589
     28 H8         -0.1416   -0.1244   -2.1369 H         1 <0>         0.0563
     29 H9          1.7725   -2.3497    0.7218 H         1 <0>         0.4120
     30 H10         0.2978   -4.3660    0.1099 H         1 <0>         0.1264
     31 H11        -1.6190   -5.7074    0.8705 H         1 <0>         0.1243
     32 H12        -3.1112   -4.8616    2.6301 H         1 <0>         0.1244
     33 H13        -2.7054   -2.6640    3.6567 H         1 <0>         0.1329
     34 H14         0.7483    1.8897    2.2869 H         1 <0>         0.0772
     35 H15        -0.2675    1.4807    3.6902 H         1 <0>         0.0866
     36 H16         1.5947    0.2880    4.7420 H         1 <0>         0.0627
     37 H17         2.6122    0.5489    3.3050 H         1 <0>         0.0575
     38 H18         2.4666    3.0005    3.6471 H         1 <0>         0.0564
     39 H19         1.4491    2.7396    5.0840 H         1 <0>         0.0586
@<TRIPOS>BOND
     1    1    2 1
     2    1   22 1
     3    1   23 1
     4    1   24 1
     5    2    3 1
     6    2    4 1
     7    2   25 1
     8    3   26 1
     9    3   27 1
    10    3   28 1
    11    4    5 1
    12    4   15 1
    13    4    6 1
    14    6    7 1
    15    6   29 1
    16    7   12 ar
    17    7    8 ar
    18    8    9 ar
    19    8   30 1
    20    9   10 ar
    21    9   31 1
    22   10   11 ar
    23   10   32 1
    24   11   12 ar
    25   11   33 1
    26   12   13 1
    27   13   14 2
    28   13   15 am
    29   15   16 1
    30   16   17 1
    31   16   34 1
    32   16   35 1
    33   17   18 1
    34   17   36 1
    35   17   37 1
    36   18   19 1
    37   18   38 1
    38   18   39 1
    39   19   20 2
    40   19   21 1
@<TRIPOS>MOLECULE
ZINC22222682
   24    24     0     0     0
SMALL
USER_CHARGES
4-[(5-bromofuran-2-carbonyl)amino]butanoic acid
@<TRIPOS>ATOM
      1 C1          0.0021   -0.0041    0.0020 C.2       1 <0>        -0.1269
      2 C2         -0.0169    1.3985    0.0097 C.2       1 <0>        -0.1632
      3 C3          1.2706    1.8144   -0.0003 C.2       1 <0>        -0.0096
      4 O1          2.0700    0.7395   -0.0137 O.3       1 <0>        -0.1462
      5 C4          1.3154   -0.3795   -0.0125 C.2       1 <0>        -0.0411
      6 C5          1.8172   -1.7564   -0.0240 C.2       1 <0>         0.5962
      7 O2          1.0354   -2.6891   -0.0208 O.2       1 <0>        -0.5231
      8 N1          3.1446   -1.9898   -0.0380 N.am      1 <0>        -0.7200
      9 C6          3.6462   -3.3661   -0.0494 C.3       1 <0>         0.1168
     10 C7          5.1761   -3.3513   -0.0642 C.3       1 <0>        -0.1104
     11 C8          5.7000   -4.7887   -0.0762 C.3       1 <0>        -0.1556
     12 C9          7.2068   -4.7741   -0.0908 C.2       1 <0>         0.4594
     13 O3          7.8008   -3.7219   -0.0915 O.co2     1 <0>        -0.6419
     14 O4          7.8892   -5.9299   -0.1029 O.co2     1 <0>        -0.7747
     15 Br1         1.8466    3.6155    0.0044 Br        1 <0>         0.0595
     16 H1         -0.8557   -0.6602    0.0061 H         1 <0>         0.1698
     17 H2         -0.8944    2.0282    0.0175 H         1 <0>         0.1674
     18 H3          3.8513   -1.1468   -0.0409 H         1 <0>         0.4301
     19 H4          3.2933   -3.8924    0.8497 H         1 <0>         0.0695
     20 H5          3.2758   -3.8839   -0.9464 H         1 <0>         0.0695
     21 H6          5.5290   -2.8249   -0.9633 H         1 <0>         0.0697
     22 H7          5.5465   -2.8335    0.8329 H         1 <0>         0.0697
     23 H8          5.3471   -5.3151    0.8229 H         1 <0>         0.0674
     24 H9          5.3296   -5.3065   -0.9733 H         1 <0>         0.0674
@<TRIPOS>BOND
     1    1    5 2
     2    1    2 1
     3    1   16 1
     4    2    3 2
     5    2   17 1
     6    3    4 1
     7    3   15 1
     8    4    5 1
     9    5    6 1
    10    6    7 2
    11    6    8 am
    12    8    9 1
    13    8   18 1
    14    9   10 1
    15    9   19 1
    16    9   20 1
    17   10   11 1
    18   10   21 1
    19   10   22 1
    20   11   12 1
    21   11   23 1
    22   11   24 1
    23   12   13 2
    24   12   14 1
@<TRIPOS>MOLECULE
ZINC37834890
   33    35     0     0     0
SMALL
USER_CHARGES

@<TRIPOS>ATOM
      1 C1          3.4660   -0.7082    9.6519 C.2       1 <0>        -0.1995
      2 C2          3.8984    0.2173    8.6816 C.2       1 <0>        -0.1981
      3 C3          3.6450   -0.3194    7.4707 C.2       1 <0>         0.0354
      4 N1          3.0721   -1.5424    7.6579 N.pl3     1 <0>        -0.5448
      5 H1          2.7875   -2.1467    6.9546 H         1 <0>         0.4078
      6 C4          2.9649   -1.7752    8.9970 C.2       1 <0>        -0.0229
      7 C5          3.9433    0.3221    6.1401 C.3       1 <0>         0.2028
      8 H2          4.8574    0.9118    6.2096 H         1 <0>         0.0929
      9 C6          2.7662    1.2265    5.7179 C.3       1 <0>        -0.1185
     10 C7          2.6772    0.9889    4.1872 C.3       1 <0>        -0.1323
     11 C8          3.0492   -0.5112    4.0831 C.3       1 <0>         0.1014
     12 N2          4.0939   -0.7140    5.1080 N.am      1 <0>        -0.6193
     13 C9          5.0288   -1.6848    5.1002 C.2       1 <0>         0.5697
     14 O1          5.8395   -1.7533    5.9996 O.2       1 <0>        -0.5134
     15 C10         5.0667   -2.6852    3.9738 C.3       1 <0>        -0.1814
     16 H3          4.1418   -3.2360    3.8028 H         1 <0>         0.1105
     17 C11         6.3842   -3.4236    3.7288 C.3       1 <0>        -0.1352
     18 C12         5.9201   -2.3408    2.7514 C.3       1 <0>        -0.1856
     19 H4          5.5567   -2.6652    1.7764 H         1 <0>         0.0988
     20 C13         6.6583   -1.0271    2.7661 C.2       1 <0>         0.5130
     21 O2          7.5847   -0.8569    3.5403 O.co2     1 <0>        -0.6762
     22 O3          6.3293   -0.1343    2.0037 O.co2     1 <0>        -0.6949
     23 H5          3.5287   -0.5874   10.7233 H         1 <0>         0.1308
     24 H6          4.3495    1.1798    8.8725 H         1 <0>         0.1317
     25 H7          2.5508   -2.6616    9.4544 H         1 <0>         0.1578
     26 H8          1.8450    0.9156    6.2107 H         1 <0>         0.0746
     27 H9          2.9864    2.2720    5.9338 H         1 <0>         0.0846
     28 H10         1.6655    1.1668    3.8224 H         1 <0>         0.0817
     29 H11         3.3979    1.6082    3.6532 H         1 <0>         0.0846
     30 H12         2.1802   -1.1333    4.2973 H         1 <0>         0.0581
     31 H13         3.4432   -0.7365    3.0921 H         1 <0>         0.0868
     32 H14         7.2235   -3.1858    4.3824 H         1 <0>         0.1106
     33 H15         6.3259   -4.4600    3.3963 H         1 <0>         0.0880
@<TRIPOS>BOND
     1    1    6 2
     2    1    2 1
     3    1   23 1
     4    2    3 2
     5    2   24 1
     6    3    4 1
     7    3    7 1
     8    4    5 1
     9    4    6 1
    10    6   25 1
    11    7    8 1
    12    7   12 1
    13    7    9 1
    14    9   10 1
    15    9   26 1
    16    9   27 1
    17   10   11 1
    18   10   28 1
    19   10   29 1
    20   11   12 1
    21   11   30 1
    22   11   31 1
    23   12   13 am
    24   13   14 2
    25   13   15 1
    26   15   16 1
    27   15   18 1
    28   15   17 1
    29   17   18 1
    30   17   32 1
    31   17   33 1
    32   18   19 1
    33   18   20 1
    34   20   21 2
    35   20   22 1
@<TRIPOS>MOLECULE
ZINC40725883
   45    46     0     0     0
SMALL
USER_CHARGES

@<TRIPOS>ATOM
      1 C1         -0.0187    1.5258    0.0104 C.3       1 <0>        -0.1521
      2 C2          0.0021   -0.0041    0.0020 C.3       1 <0>        -0.1172
      3 C3         -1.4333   -0.5336    0.0129 C.3       1 <0>        -0.0864
      4 C4         -2.1103   -0.1453    1.3289 C.3       1 <0>        -0.1099
      5 C5         -3.5456   -0.6748    1.3397 C.3       1 <0>        -0.1052
      6 C6         -3.5280   -2.1989    1.2056 C.3       1 <0>         0.1291
      7 C7         -2.8510   -2.5872   -0.1103 C.3       1 <0>        -0.1130
      8 C8         -1.4157   -2.0577   -0.1212 C.3       1 <0>        -0.1053
      9 C9         -4.9418   -2.7205    1.2163 C.2       1 <0>         0.4999
     10 O1         -5.7316   -2.3587    0.3608 O.co2     1 <0>        -0.7043
     11 O2         -5.2959   -3.5043    2.0805 O.co2     1 <0>        -0.6748
     12 N1         -2.7849   -2.7792    2.3269 N.am      1 <0>        -0.7121
     13 C10        -2.6381   -4.1158    2.4183 C.2       1 <0>         0.7328
     14 O3         -3.1224   -4.8400    1.5702 O.2       1 <0>        -0.5656
     15 N2         -1.9545   -4.6496    3.4499 N.am      1 <0>        -0.6459
     16 C11        -1.3256   -3.8945    4.5435 C.3       1 <0>         0.1028
     17 C12        -0.6858   -4.9219    5.5009 C.3       1 <0>        -0.1234
     18 C13        -1.4751   -6.2218    5.1937 C.3       1 <0>        -0.1090
     19 H1         -2.4199   -6.2428    5.7369 H         1 <0>         0.0835
     20 C14        -1.7188   -6.0879    3.6720 C.3       1 <0>         0.1338
     21 C15        -0.6358   -7.4610    5.5110 C.3       1 <0>        -0.1377
     22 H2          1.0039    1.9031    0.0027 H         1 <0>         0.0469
     23 H3         -0.5459    1.8868   -0.8726 H         1 <0>         0.0522
     24 H4         -0.5289    1.8773    0.9072 H         1 <0>         0.0560
     25 H5          0.5123   -0.3556   -0.8948 H         1 <0>         0.0568
     26 H6          0.5293   -0.3651    0.8851 H         1 <0>         0.0567
     27 H7         -1.9862   -0.1019   -0.8214 H         1 <0>         0.0685
     28 H8         -1.5574   -0.5770    2.1631 H         1 <0>         0.0533
     29 H9         -2.1228    0.9405    1.4244 H         1 <0>         0.0585
     30 H10        -4.0279   -0.3982    2.2772 H         1 <0>         0.0569
     31 H11        -4.0985   -0.2431    0.5055 H         1 <0>         0.0801
     32 H12        -2.8385   -3.6730   -0.2059 H         1 <0>         0.0769
     33 H13        -3.4039   -2.1555   -0.9446 H         1 <0>         0.0665
     34 H14        -0.9334   -2.3344   -1.0587 H         1 <0>         0.0503
     35 H15        -0.8628   -2.4894    0.7131 H         1 <0>         0.0537
     36 H16        -2.3985   -2.2014    3.0035 H         1 <0>         0.3777
     37 H17        -0.5578   -3.2325    4.1432 H         1 <0>         0.0571
     38 H18        -2.0797   -3.3130    5.0739 H         1 <0>         0.0596
     39 H19         0.3729   -5.0513    5.2761 H         1 <0>         0.0734
     40 H20        -0.8268   -4.6213    6.5392 H         1 <0>         0.0767
     41 H21        -2.5940   -6.6659    3.3752 H         1 <0>         0.0748
     42 H22        -0.8396   -6.4181    3.1188 H         1 <0>         0.0562
     43 H23        -0.3668   -7.4569    6.5673 H         1 <0>         0.0569
     44 H24        -1.2130   -8.3580    5.2866 H         1 <0>         0.0579
     45 H25         0.2703   -7.4510    4.9053 H         1 <0>         0.0563
@<TRIPOS>BOND
     1    1    2 1
     2    1   22 1
     3    1   23 1
     4    1   24 1
     5    2    3 1
     6    2   25 1
     7    2   26 1
     8    3    8 1
     9    3    4 1
    10    3   27 1
    11    4    5 1
    12    4   28 1
    13    4   29 1
    14    5    6 1
    15    5   30 1
    16    5   31 1
    17    6    7 1
    18    6    9 1
    19    6   12 1
    20    7    8 1
    21    7   32 1
    22    7   33 1
    23    8   34 1
    24    8   35 1
    25    9   10 2
    26    9   11 1
    27   12   13 am
    28   12   36 1
    29   13   14 2
    30   13   15 am
    31   15   20 1
    32   15   16 1
    33   16   17 1
    34   16   37 1
    35   16   38 1
    36   17   18 1
    37   17   39 1
    38   17   40 1
    39   18   19 1
    40   18   20 1
    41   18   21 1
    42   20   41 1
    43   20   42 1
    44   21   43 1
    45   21   44 1
    46   21   45 1
@<TRIPOS>MOLECULE
ZINC49594840
   33    34     0     0     0
SMALL
USER_CHARGES

@<TRIPOS>ATOM
      1 C1         -0.0168    1.3883    0.0097 C.2       1 <0>        -0.1951
      2 C2          1.1715    2.0580    0.0019 C.2       1 <0>        -0.0575
      3 C3          2.3513    1.3258   -0.0133 C.2       1 <0>        -0.2563
      4 S1          1.7522   -0.3559   -0.0166 S.3       1 <0>         0.0947
      5 C4          0.0021   -0.0041    0.0020 C.2       1 <0>        -0.0630
      6 C5         -1.1224   -0.9379    0.0077 C.2       1 <0>        -0.0924
      7 C6         -0.8938   -2.2748   -0.0016 C.2       1 <0>        -0.1325
      8 C7         -1.9811   -3.1777    0.0039 C.2       1 <0>         0.4991
      9 O1         -3.1303   -2.7528    0.0172 O.co2     1 <0>        -0.6876
     10 O2         -1.7746   -4.3855   -0.0045 O.co2     1 <0>        -0.6909
     11 C8          3.7392    1.8115   -0.0246 C.2       1 <0>         0.6172
     12 O3          3.9654    3.0067   -0.0211 O.2       1 <0>        -0.4920
     13 N1          4.7607    0.9324   -0.0390 N.am      1 <0>        -0.6154
     14 C9          4.6304   -0.5360   -0.0512 C.3       1 <0>         0.0885
     15 C10         5.9524   -1.0462   -0.6773 C.3       1 <0>        -0.1289
     16 C11         6.9818   -0.0445   -0.0905 C.3       1 <0>        -0.1254
     17 C12         6.1894    1.2791   -0.0514 C.3       1 <0>         0.1423
     18 H1          6.4183    1.8765   -0.9339 H         1 <0>         0.0826
     19 C13         6.5467    2.0590    1.2155 C.3       1 <0>         0.0643
     20 O4          5.8851    3.3255    1.1977 O.3       1 <0>        -0.5367
     21 H2         -0.9529    1.9267    0.0259 H         1 <0>         0.1404
     22 H3          1.1943    3.1378    0.0072 H         1 <0>         0.1391
     23 H4         -2.1353   -0.5633    0.0194 H         1 <0>         0.1483
     24 H5          0.1191   -2.6493   -0.0133 H         1 <0>         0.1008
     25 H6          4.5205   -0.9156    0.9646 H         1 <0>         0.0753
     26 H7          3.7801   -0.8363   -0.6635 H         1 <0>         0.0841
     27 H8          6.1702   -2.0642   -0.3545 H         1 <0>         0.0900
     28 H9          5.9202   -0.9812   -1.7649 H         1 <0>         0.0802
     29 H10         7.2854   -0.3463    0.9119 H         1 <0>         0.0805
     30 H11         7.8480    0.0465   -0.7459 H         1 <0>         0.0867
     31 H12         6.2275    1.4946    2.0917 H         1 <0>         0.0437
     32 H13         7.6250    2.2129    1.2555 H         1 <0>         0.0501
     33 H14         6.0664    3.8749    1.9726 H         1 <0>         0.3660
@<TRIPOS>BOND
     1    1    5 2
     2    1    2 1
     3    1   21 1
     4    2    3 2
     5    2   22 1
     6    3    4 1
     7    3   11 1
     8    4    5 1
     9    5    6 1
    10    6    7 2
    11    6   23 1
    12    7    8 1
    13    7   24 1
    14    8    9 2
    15    8   10 1
    16   11   12 2
    17   11   13 am
    18   13   17 1
    19   13   14 1
    20   14   15 1
    21   14   25 1
    22   14   26 1
    23   15   16 1
    24   15   27 1
    25   15   28 1
    26   16   17 1
    27   16   29 1
    28   16   30 1
    29   17   18 1
    30   17   19 1
    31   19   20 1
    32   19   31 1
    33   19   32 1
    34   20   33 1
@<TRIPOS>MOLECULE
ZINC57930492
   39    40     0     0     0
SMALL
USER_CHARGES

@<TRIPOS>ATOM
      1 C1         -0.0063    1.5255    0.0263 C.3       1 <0>        -0.1415
      2 C2          0.0131   -0.0044    0.0166 C.3       1 <0>        -0.1330
      3 C3         -1.4228   -0.5326    0.0144 C.3       1 <0>         0.1488
      4 H1         -1.9692   -0.1002   -0.8238 H         1 <0>         0.1112
      5 C4         -1.4075   -2.0348   -0.1144 C.2       1 <0>         0.5109
      6 O1         -1.4510   -2.5429   -1.2150 O.2       1 <0>        -0.4910
      7 N1         -1.3457   -2.8177    0.9780 N.am      1 <0>        -0.5172
      8 C5         -1.4360   -2.2676    2.2618 C.ar      1 <0>         0.1338
      9 C6         -1.1708   -3.0408    3.3810 C.ar      1 <0>        -0.1325
     10 C7         -1.2560   -2.4797    4.6420 C.ar      1 <0>        -0.0942
     11 C8         -1.6044   -1.1500    4.7932 C.ar      1 <0>        -0.0945
     12 C9         -1.8736   -0.3711    3.6818 C.ar      1 <0>        -0.1415
     13 C10        -1.7942   -0.9279    2.4175 C.ar      1 <0>         0.1556
     14 N2         -2.0841   -0.1648    1.2748 N.pl3     1 <0>        -0.7473
     15 C11        -1.6906   -0.5477    6.1719 C.3       1 <0>        -0.1067
     16 C12        -0.9680   -3.3219    5.8580 C.3       1 <0>        -0.1093
     17 C13        -1.1811   -4.2650    0.8217 C.3       1 <0>         0.0594
     18 H2         -1.0535   -4.7241    1.8021 H         1 <0>         0.0869
     19 C14         0.0521   -4.5481   -0.0384 C.3       1 <0>        -0.1465
     20 C15        -2.4029   -4.8402    0.1529 C.2       1 <0>         0.4960
     21 O2         -3.2418   -4.0971   -0.3273 O.co2     1 <0>        -0.6694
     22 O3         -2.5525   -6.0487    0.0919 O.co2     1 <0>        -0.7000
     23 H3          1.0167    1.9018    0.0278 H         1 <0>         0.0538
     24 H4         -0.5254    1.8879   -0.8609 H         1 <0>         0.0538
     25 H5         -0.5239    1.8766    0.9190 H         1 <0>         0.0574
     26 H6          0.5308   -0.3555   -0.8761 H         1 <0>         0.0743
     27 H7          0.5323   -0.3668    0.9038 H         1 <0>         0.0669
     28 H8         -0.8977   -4.0796    3.2685 H         1 <0>         0.1288
     29 H9         -2.1453    0.6674    3.8007 H         1 <0>         0.1215
     30 H10        -2.7018    0.5821    1.3147 H         1 <0>         0.4036
     31 H11        -0.7202   -0.1366    6.4502 H         1 <0>         0.0633
     32 H12        -2.4364    0.2472    6.1752 H         1 <0>         0.0591
     33 H13        -1.9776   -1.3181    6.8876 H         1 <0>         0.0664
     34 H14         0.0929   -3.2597    6.1002 H         1 <0>         0.0643
     35 H15        -1.5551   -2.9563    6.7005 H         1 <0>         0.0662
     36 H16        -1.2337   -4.3590    5.6529 H         1 <0>         0.0626
     37 H17         0.9359   -4.1321    0.4453 H         1 <0>         0.0392
     38 H18         0.1746   -5.6250   -0.1547 H         1 <0>         0.0680
     39 H19        -0.0755   -4.0890   -1.0188 H         1 <0>         0.0732
@<TRIPOS>BOND
     1    1    2 1
     2    1   23 1
     3    1   24 1
     4    1   25 1
     5    2    3 1
     6    2   26 1
     7    2   27 1
     8    3    4 1
     9    3   14 1
    10    3    5 1
    11    5    6 2
    12    5    7 am
    13    7    8 1
    14    7   17 1
    15    8   13 ar
    16    8    9 ar
    17    9   10 ar
    18    9   28 1
    19   10   11 ar
    20   10   16 1
    21   11   12 ar
    22   11   15 1
    23   12   13 ar
    24   12   29 1
    25   13   14 1
    26   14   30 1
    27   15   31 1
    28   15   32 1
    29   15   33 1
    30   16   34 1
    31   16   35 1
    32   16   36 1
    33   17   18 1
    34   17   19 1
    35   17   20 1
    36   19   37 1
    37   19   38 1
    38   19   39 1
    39   20   21 2
    40   20   22 1
@<TRIPOS>MOLECULE
ZINC13320347
   44    45     0     0     0
SMALL
USER_CHARGES
(1S,6R)-6-[[(1R)-1-(3,4-dimethylphenyl)ethyl]carbamoyl]cyclohex-3-ene-1-carboxylic acid
@<TRIPOS>ATOM
      1 C1         -0.2938   -2.1633    7.9443 C.3       1 <0>        -0.1139
      2 C2         -0.4818   -1.1700    6.8267 C.ar      1 <0>        -0.0929
      3 C3          0.5703   -0.8755    5.9794 C.ar      1 <0>        -0.1127
      4 C4          0.3969    0.0330    4.9523 C.ar      1 <0>        -0.0991
      5 C5         -0.8262    0.6534    4.7773 C.ar      1 <0>        -0.0805
      6 C6         -1.8783    0.3580    5.6235 C.ar      1 <0>        -0.1060
      7 C7         -1.7060   -0.5537    6.6485 C.ar      1 <0>        -0.0897
      8 C8         -2.8529   -0.8750    7.5718 C.3       1 <0>        -0.1141
      9 C9         -1.0140    1.6471    3.6600 C.3       1 <0>         0.1825
     10 H1         -2.0771    1.7560    3.4455 H         1 <0>         0.0875
     11 C10        -0.4370    3.0008    4.0791 C.3       1 <0>        -0.1529
     12 N1         -0.3201    1.1707    2.4609 N.am      1 <0>        -0.7047
     13 C11        -0.7264    1.5759    1.2415 C.2       1 <0>         0.5394
     14 O1         -1.6665    2.3350    1.1368 O.2       1 <0>        -0.5541
     15 C12        -0.0127    1.0858    0.0080 C.3       1 <0>        -0.0888
     16 H2          0.9833    0.7337    0.2766 H         1 <0>         0.0855
     17 C13         0.1009    2.2250   -1.0073 C.3       1 <0>        -0.0679
     18 C14        -1.2484    2.5404   -1.5835 C.2       1 <0>        -0.1588
     19 C15        -2.2703    1.7490   -1.5125 C.2       1 <0>        -0.1256
     20 C16        -2.2514    0.4101   -0.8350 C.3       1 <0>        -0.0687
     21 C17        -0.8084   -0.0581   -0.6333 C.3       1 <0>        -0.1164
     22 H3         -0.3684   -0.3154   -1.5967 H         1 <0>         0.0793
     23 C18        -0.7884   -1.2605    0.2750 C.2       1 <0>         0.4668
     24 O2         -0.1991   -1.2119    1.3286 O.co2     1 <0>        -0.6330
     25 H4         -0.5401   -3.1632    7.5870 H         1 <0>         0.0687
     26 H5          0.7434   -2.1422    8.2786 H         1 <0>         0.0622
     27 H6         -0.9489   -1.9031    8.7757 H         1 <0>         0.0666
     28 H7          1.5268   -1.3574    6.1185 H         1 <0>         0.1199
     29 H8          1.2178    0.2605    4.2883 H         1 <0>         0.1198
     30 H9         -2.8349    0.8395    5.4842 H         1 <0>         0.1197
     31 H10        -3.4212   -1.7127    7.1674 H         1 <0>         0.0690
     32 H11        -2.4644   -1.1405    8.5550 H         1 <0>         0.0671
     33 H12        -3.5026   -0.0044    7.6608 H         1 <0>         0.0626
     34 H13        -0.5728    3.7195    3.2710 H         1 <0>         0.0626
     35 H14        -0.9532    3.3552    4.9713 H         1 <0>         0.0603
     36 H15         0.6261    2.8919    4.2937 H         1 <0>         0.0551
     37 H16         0.4317    0.5635    2.5447 H         1 <0>         0.4095
     38 H17         0.4988    3.1112   -0.5130 H         1 <0>         0.0641
     39 H18         0.7760    1.9277   -1.8099 H         1 <0>         0.0724
     40 H19        -1.3746    3.4863   -2.0891 H         1 <0>         0.0927
     41 H20        -3.1940    2.0726   -1.9691 H         1 <0>         0.0923
     42 H21        -2.7449    0.4884    0.1337 H         1 <0>         0.0700
     43 H22        -2.7812   -0.3149   -1.4528 H         1 <0>         0.0706
     44 O3         -1.4253   -2.3854   -0.0866 O.co2     1 <0>        -0.7664
@<TRIPOS>BOND
     1    1    2 1
     2    1   25 1
     3    1   26 1
     4    1   27 1
     5    2    7 ar
     6    2    3 ar
     7    3    4 ar
     8    3   28 1
     9    4    5 ar
    10    4   29 1
    11    5    6 ar
    12    5    9 1
    13    6    7 ar
    14    6   30 1
    15    7    8 1
    16    8   31 1
    17    8   32 1
    18    8   33 1
    19    9   10 1
    20    9   11 1
    21    9   12 1
    22   11   34 1
    23   11   35 1
    24   11   36 1
    25   12   13 am
    26   12   37 1
    27   13   14 2
    28   13   15 1
    29   15   16 1
    30   15   21 1
    31   15   17 1
    32   17   18 1
    33   17   38 1
    34   17   39 1
    35   18   19 2
    36   18   40 1
    37   19   20 1
    38   19   41 1
    39   20   21 1
    40   20   42 1
    41   20   43 1
    42   21   22 1
    43   21   23 1
    44   23   24 2
    45   23   44 1
@<TRIPOS>MOLECULE
ZINC35634790
   33    34     0     0     0
SMALL
USER_CHARGES

@<TRIPOS>ATOM
      1 C1         -0.0187    1.5258    0.0104 C.3       1 <0>        -0.1811
      2 C2          0.0021   -0.0041    0.0020 C.3       1 <0>         0.1446
      3 H1          0.5123   -0.3556   -0.8948 H         1 <0>         0.0679
      4 C3          0.7309   -0.5033    1.2229 C.ar      1 <0>        -0.1145
      5 C4          0.0532   -0.6565    2.4182 C.ar      1 <0>        -0.0541
      6 C5          0.7216   -1.1143    3.5379 C.ar      1 <0>        -0.1485
      7 C6          2.0680   -1.4196    3.4626 C.ar      1 <0>        -0.0202
      8 C7          2.7454   -1.2673    2.2675 C.ar      1 <0>        -0.6150
      9 C8          2.0757   -0.8134    1.1463 C.ar      1 <0>        -0.0134
     10 S1          4.4613   -1.6558    2.1717 S.o2      1 <0>         2.6094
     11 O1          4.9864   -0.9097    1.0822 O.2       1 <0>        -1.0260
     12 O2          4.9774   -1.5436    3.4909 O.2       1 <0>        -1.0253
     13 N1          4.5789   -3.2533    1.7517 N.2       1 <0>        -1.0786
     14 C9          5.8366   -3.8458    1.6005 C.ar      1 <0>         0.2633
     15 C10         6.9877   -3.0975    1.8077 C.ar      1 <0>        -0.2431
     16 C11         8.2291   -3.6850    1.6583 C.ar      1 <0>        -0.0607
     17 C12         8.3279   -5.0174    1.3025 C.ar      1 <0>        -0.1950
     18 C13         7.1838   -5.7678    1.0942 C.ar      1 <0>        -0.0238
     19 C14         5.9372   -5.1870    1.2479 C.ar      1 <0>         0.0379
     20 F1          4.8199   -5.9203    1.0502 F         1 <0>        -0.1328
     21 Cl1         7.3127   -7.4403    0.6471 Cl        1 <0>        -0.0852
     22 O3         -1.3386   -0.4987    0.0122 O.3       1 <0>        -0.5629
     23 H2          1.0039    1.9031    0.0027 H         1 <0>         0.0702
     24 H3         -0.5459    1.8868   -0.8726 H         1 <0>         0.0608
     25 H4         -0.5289    1.8773    0.9072 H         1 <0>         0.0641
     26 H5         -0.9985   -0.4180    2.4770 H         1 <0>         0.1285
     27 H6          0.1924   -1.2333    4.4718 H         1 <0>         0.1280
     28 H7          2.5905   -1.7767    4.3377 H         1 <0>         0.1373
     29 H8          2.6041   -0.6980    0.2115 H         1 <0>         0.1363
     30 H9          6.9126   -2.0565    2.0853 H         1 <0>         0.1112
     31 H10         9.1241   -3.1023    1.8193 H         1 <0>         0.1200
     32 H11         9.2999   -5.4735    1.1865 H         1 <0>         0.1232
     33 H12        -1.8677   -0.2163   -0.7464 H         1 <0>         0.3776
@<TRIPOS>BOND
     1    1    2 1
     2    1   23 1
     3    1   24 1
     4    1   25 1
     5    2    3 1
     6    2    4 1
     7    2   22 1
     8    4    9 ar
     9    4    5 ar
    10    5    6 ar
    11    5   26 1
    12    6    7 ar
    13    6   27 1
    14    7    8 ar
    15    7   28 1
    16    8    9 ar
    17    8   10 1
    18    9   29 1
    19   10   11 2
    20   10   12 2
    21   10   13 1
    22   13   14 1
    23   14   19 ar
    24   14   15 ar
    25   15   16 ar
    26   15   30 1
    27   16   17 ar
    28   16   31 1
    29   17   18 ar
    30   17   32 1
    31   18   19 ar
    32   18   21 1
    33   19   20 1
    34   22   33 1
@<TRIPOS>MOLECULE
ZINC40225217
   44    45     0     0     0
SMALL
USER_CHARGES

@<TRIPOS>ATOM
      1 C1          0.0078    1.6391    0.2431 C.3       1 <0>        -0.1089
      2 C2         -0.0082    0.1351    0.1501 C.ar      1 <0>        -0.1200
      3 C3         -0.0549   -0.4795   -1.0879 C.ar      1 <0>        -0.0910
      4 C4         -0.0701   -1.8578   -1.1758 C.ar      1 <0>        -0.2058
      5 C5         -0.0380   -2.6259   -0.0207 C.ar      1 <0>         0.1251
      6 C6          0.0093   -2.0071    1.2198 C.ar      1 <0>        -0.1272
      7 C7          0.0296   -0.6280    1.3022 C.ar      1 <0>        -0.0734
      8 C8          0.0442   -2.8383    2.4763 C.3       1 <0>         0.1537
      9 H1          0.6199   -3.7461    2.2956 H         1 <0>         0.1038
     10 C9         -1.3833   -3.2116    2.8807 C.3       1 <0>        -0.1315
     11 C10        -1.3410   -4.1961    4.0512 C.3       1 <0>        -0.0232
     12 C11        -0.5061   -5.4358    3.6690 C.3       1 <0>        -0.1202
     13 C12        -1.2480   -6.6161    4.3440 C.3       1 <0>        -0.1219
     14 C13        -2.7375   -6.2309    4.1647 C.3       1 <0>        -0.1289
     15 C14        -2.7597   -4.7017    4.3663 C.3       1 <0>        -0.0922
     16 C15        -0.7402   -3.5181    5.2842 C.3       1 <0>        -0.1908
     17 C16        -1.6419   -2.3958    5.7298 C.2       1 <0>         0.4936
     18 O1         -2.6244   -2.1044    5.0693 O.co2     1 <0>        -0.6954
     19 O2         -1.3888   -1.7793    6.7507 O.co2     1 <0>        -0.7145
     20 O3          0.6561   -2.0876    3.5272 O.3       1 <0>        -0.5485
     21 O4         -0.0533   -3.9822   -0.1046 O.3       1 <0>        -0.3104
     22 C17        -0.1030   -4.5507   -1.4147 C.3       1 <0>         0.0286
     23 H2          1.0386    1.9932    0.2263 H         1 <0>         0.0658
     24 H3         -0.5352    2.0612   -0.6025 H         1 <0>         0.0617
     25 H4         -0.4682    1.9507    1.1728 H         1 <0>         0.0675
     26 H5         -0.0799    0.1188   -1.9867 H         1 <0>         0.1201
     27 H6         -0.1073   -2.3373   -2.1428 H         1 <0>         0.1245
     28 H7          0.0705   -0.1458    2.2677 H         1 <0>         0.1302
     29 H8         -1.9227   -2.3132    3.1809 H         1 <0>         0.1032
     30 H9         -1.8913   -3.6747    2.0347 H         1 <0>         0.0521
     31 H10        -0.4885   -5.5650    2.5869 H         1 <0>         0.0596
     32 H11         0.5075   -5.3485    4.0603 H         1 <0>         0.0583
     33 H12        -1.0273   -7.5536    3.8335 H         1 <0>         0.0530
     34 H13        -0.9902   -6.6806    5.4011 H         1 <0>         0.0611
     35 H14        -3.0802   -6.4886    3.1626 H         1 <0>         0.0542
     36 H15        -3.3523   -6.7240    4.9177 H         1 <0>         0.0531
     37 H16        -3.0199   -4.4648    5.3980 H         1 <0>         0.0634
     38 H17        -3.4784   -4.2457    3.6854 H         1 <0>         0.0576
     39 H18        -0.6430   -4.2473    6.0886 H         1 <0>         0.0427
     40 H19         0.2428   -3.1177    5.0360 H         1 <0>         0.0938
     41 H20         0.1959   -1.2647    3.7421 H         1 <0>         0.3752
     42 H21        -1.0077   -4.2156   -1.9221 H         1 <0>         0.0527
     43 H22         0.7712   -4.2320   -1.9825 H         1 <0>         0.0515
     44 H23        -0.1104   -5.6380   -1.3390 H         1 <0>         0.0976
@<TRIPOS>BOND
     1    1    2 1
     2    1   23 1
     3    1   24 1
     4    1   25 1
     5    2    7 ar
     6    2    3 ar
     7    3    4 ar
     8    3   26 1
     9    4    5 ar
    10    4   27 1
    11    5    6 ar
    12    5   21 1
    13    6    7 ar
    14    6    8 1
    15    7   28 1
    16    8    9 1
    17    8   10 1
    18    8   20 1
    19   10   11 1
    20   10   29 1
    21   10   30 1
    22   11   15 1
    23   11   12 1
    24   11   16 1
    25   12   13 1
    26   12   31 1
    27   12   32 1
    28   13   14 1
    29   13   33 1
    30   13   34 1
    31   14   15 1
    32   14   35 1
    33   14   36 1
    34   15   37 1
    35   15   38 1
    36   16   17 1
    37   16   39 1
    38   16   40 1
    39   17   18 2
    40   17   19 1
    41   20   41 1
    42   21   22 1
    43   22   42 1
    44   22   43 1
    45   22   44 1
@<TRIPOS>MOLECULE
ZINC49914080
   40    41     0     0     0
SMALL
USER_CHARGES

@<TRIPOS>ATOM
      1 C1         -0.0184    1.5028    0.0103 C.3       1 <0>        -0.1155
      2 C2          0.0021   -0.0041    0.0020 C.ar      1 <0>        -0.0435
      3 C3          0.0057   -0.6882   -1.2000 C.ar      1 <0>        -0.1801
      4 C4          0.0240   -2.0707   -1.2121 C.ar      1 <0>        -0.0733
      5 C5          0.0391   -2.7732   -0.0230 C.ar      1 <0>        -0.1996
      6 C6          0.0360   -2.0893    1.1859 C.ar      1 <0>         0.2243
      7 C7          0.0228   -0.7000    1.1944 C.ar      1 <0>        -0.1659
      8 C8          0.0251    0.0464    2.5036 C.3       1 <0>        -0.1063
      9 N1          0.0513   -2.7965    2.3902 N.pl3     1 <0>        -0.7455
     10 C9          0.0706   -4.2614    2.3793 C.3       1 <0>         0.1318
     11 C10         0.0846   -4.7820    3.8179 C.3       1 <0>        -0.0271
     12 C11         0.1045   -6.2888    3.8067 C.2       1 <0>         0.0068
     13 N2          1.1414   -7.0888    3.8014 N.2       1 <0>        -0.4943
     14 C12         0.9970   -8.3989    3.7915 C.2       1 <0>         0.0248
     15 C13        -0.2734   -8.8779    3.7871 C.2       1 <0>        -0.0953
     16 S1         -1.2004   -7.3518    3.8054 S.3       1 <0>         0.0862
     17 C14        -0.7649  -10.3024    3.7754 C.3       1 <0>        -0.1134
     18 C15        -0.9292  -10.7887    5.1923 C.2       1 <0>         0.4998
     19 O1         -0.6712  -10.0473    6.1251 O.co2     1 <0>        -0.6818
     20 O2         -1.3202  -11.9237    5.4057 O.co2     1 <0>        -0.6936
     21 C16         2.1874   -9.3229    3.7848 C.3       1 <0>        -0.0666
     22 H1          1.0042    1.8801    0.0026 H         1 <0>         0.0688
     23 H2         -0.5455    1.8639   -0.8728 H         1 <0>         0.0645
     24 H3         -0.5286    1.8543    0.9071 H         1 <0>         0.0666
     25 H4         -0.0061   -0.1414   -2.1312 H         1 <0>         0.1148
     26 H5          0.0260   -2.6019   -2.1525 H         1 <0>         0.1183
     27 H6          0.0530   -3.8531   -0.0331 H         1 <0>         0.1202
     28 H7         -1.0019    0.2123    2.8290 H         1 <0>         0.0642
     29 H8          0.5541   -0.5398    3.2551 H         1 <0>         0.0582
     30 H9          0.5247    1.0064    2.3736 H         1 <0>         0.0670
     31 H10         0.0491   -2.3178    3.2339 H         1 <0>         0.3992
     32 H11        -0.8170   -4.6327    1.8672 H         1 <0>         0.0641
     33 H12         0.9628   -4.6091    1.8584 H         1 <0>         0.0670
     34 H13         0.9722   -4.4107    4.3301 H         1 <0>         0.0951
     35 H14        -0.8075   -4.4343    4.3388 H         1 <0>         0.0896
     36 H15        -1.7245  -10.3515    3.2608 H         1 <0>         0.0785
     37 H16        -0.0418  -10.9320    3.2568 H         1 <0>         0.0894
     38 H17         2.4739   -9.5538    4.8108 H         1 <0>         0.0713
     39 H18         1.9290  -10.2447    3.2636 H         1 <0>         0.0682
     40 H19         3.0204   -8.8386    3.2752 H         1 <0>         0.0632
@<TRIPOS>BOND
     1    1    2 1
     2    1   22 1
     3    1   23 1
     4    1   24 1
     5    2    7 ar
     6    2    3 ar
     7    3    4 ar
     8    3   25 1
     9    4    5 ar
    10    4   26 1
    11    5    6 ar
    12    5   27 1
    13    6    7 ar
    14    6    9 1
    15    7    8 1
    16    8   28 1
    17    8   29 1
    18    8   30 1
    19    9   10 1
    20    9   31 1
    21   10   11 1
    22   10   32 1
    23   10   33 1
    24   11   12 1
    25   11   34 1
    26   11   35 1
    27   12   16 1
    28   12   13 2
    29   13   14 1
    30   14   15 2
    31   14   21 1
    32   15   16 1
    33   15   17 1
    34   17   18 1
    35   17   36 1
    36   17   37 1
    37   18   19 2
    38   18   20 1
    39   21   38 1
    40   21   39 1
    41   21   40 1
@<TRIPOS>MOLECULE
ZINC61608615
   35    36     0     0     0
SMALL
USER_CHARGES

@<TRIPOS>ATOM
      1 C1         -0.0167    1.3781    0.0096 C.ar      1 <0>        -0.1393
      2 C2          1.1709    2.0855    0.0021 C.ar      1 <0>        -0.1245
      3 C3          2.3773    1.4107   -0.0130 C.ar      1 <0>        -0.1220
      4 C4          2.3960    0.0285   -0.0201 C.ar      1 <0>        -0.0225
      5 C5          1.2084   -0.6789   -0.0117 C.ar      1 <0>        -0.0993
      6 C6          0.0021   -0.0041    0.0020 C.ar      1 <0>        -0.1210
      7 C7          3.7112   -0.7071   -0.0376 C.3       1 <0>        -0.1451
      8 H1          4.5299    0.0124   -0.0426 H         1 <0>         0.0779
      9 C8          3.7911   -1.5793   -1.2921 C.3       1 <0>         0.1555
     10 N1          5.1150   -2.2015   -1.3708 N.am      1 <0>        -0.6873
     11 C9          5.4157   -3.0182   -2.3999 C.2       1 <0>         0.5414
     12 O1          4.5868   -3.2389   -3.2644 O.2       1 <0>        -0.5682
     13 C10         6.6943   -3.6190   -2.4759 C.2       1 <0>        -0.1881
     14 C11         6.9969   -4.4410   -3.5117 C.2       1 <0>         0.0061
     15 C12         8.2765   -5.0423   -3.5878 C.2       1 <0>        -0.1648
     16 C13         8.7855   -5.9007   -4.5560 C.2       1 <0>        -0.1291
     17 C14        10.0769   -6.3246   -4.3555 C.2       1 <0>        -0.1733
     18 C15        10.7509   -5.8923   -3.2608 C.2       1 <0>        -0.2528
     19 S1          9.6579   -4.8903   -2.4712 S.3       1 <0>         0.1981
     20 C16         3.8156   -1.5785    1.1875 C.2       1 <0>         0.5008
     21 O2          4.4559   -2.6152    1.1454 O.co2     1 <0>        -0.6862
     22 O3          3.2599   -1.2467    2.2208 O.co2     1 <0>        -0.6829
     23 H2         -0.9591    1.9053    0.0259 H         1 <0>         0.1128
     24 H3          1.1563    3.1654    0.0076 H         1 <0>         0.1138
     25 H4          3.3051    1.9634   -0.0196 H         1 <0>         0.1145
     26 H5          1.2231   -1.7588   -0.0176 H         1 <0>         0.1160
     27 H6         -0.9258   -0.5567    0.0082 H         1 <0>         0.1150
     28 H7          3.0271   -2.3554   -1.2443 H         1 <0>         0.0624
     29 H8          3.6268   -0.9617   -2.1751 H         1 <0>         0.0546
     30 H9          5.7752   -2.0257   -0.6822 H         1 <0>         0.4084
     31 H10         7.4293   -3.4233   -1.7092 H         1 <0>         0.1244
     32 H11         6.2619   -4.6367   -4.2784 H         1 <0>         0.1493
     33 H12         8.2033   -6.2141   -5.4100 H         1 <0>         0.1430
     34 H13        10.5489   -6.9934   -5.0600 H         1 <0>         0.1300
     35 H14        11.7617   -6.1333   -2.9664 H         1 <0>         0.1823
@<TRIPOS>BOND
     1    1    6 ar
     2    1    2 ar
     3    1   23 1
     4    2    3 ar
     5    2   24 1
     6    3    4 ar
     7    3   25 1
     8    4    5 ar
     9    4    7 1
    10    5    6 ar
    11    5   26 1
    12    6   27 1
    13    7    8 1
    14    7    9 1
    15    7   20 1
    16    9   10 1
    17    9   28 1
    18    9   29 1
    19   10   11 am
    20   10   30 1
    21   11   12 2
    22   11   13 1
    23   13   14 2
    24   13   31 1
    25   14   15 1
    26   14   32 1
    27   15   19 1
    28   15   16 2
    29   16   17 1
    30   16   33 1
    31   17   18 2
    32   17   34 1
    33   18   19 1
    34   18   35 1
    35   20   21 2
    36   20   22 1
@<TRIPOS>MOLECULE
ZINC01705751
   29    32     0     0     0
SMALL
USER_CHARGES
(1S)-1-bromospiro[cyclopropane-2,9'-fluorene]-1-carboxylic acid
@<TRIPOS>ATOM
      1 C1          1.2785    2.0498   -0.1770 C.ar      1 <0>        -0.1230
      2 C2          0.0738    1.3747   -0.0936 C.ar      1 <0>        -0.1200
      3 C3          0.0545   -0.0081   -0.0602 C.ar      1 <0>        -0.0929
      4 C4          1.2361   -0.7171   -0.1105 C.ar      1 <0>        -0.0461
      5 C5          2.4540   -0.0462   -0.1946 C.ar      1 <0>        -0.0429
      6 C6          2.4654    1.3493   -0.2280 C.ar      1 <0>        -0.1027
      7 C7          3.5610   -1.0342   -0.2335 C.ar      1 <0>        -0.0611
      8 C8          4.9440   -0.8627   -0.3151 C.ar      1 <0>        -0.1028
      9 C9          5.7750   -1.9633   -0.3363 C.ar      1 <0>        -0.1256
     10 C10         5.2435   -3.2392   -0.2769 C.ar      1 <0>        -0.1119
     11 C11         3.8740   -3.4170   -0.1955 C.ar      1 <0>        -0.0712
     12 C12         3.0352   -2.3227   -0.1737 C.ar      1 <0>        -0.0298
     13 C13         1.5367   -2.1929   -0.0926 C.3       1 <0>        -0.0396
     14 C14         0.6168   -3.1965   -0.7839 C.3       1 <0>        -0.1198
     15 C15         0.7027   -3.1604    0.7439 C.3       1 <0>        -0.0694
     16 C16         1.4264   -4.2919    1.4272 C.2       1 <0>         0.5051
     17 O1          1.2488   -5.4302    1.0629 O.co2     1 <0>        -0.6152
     18 Br1        -0.8338   -2.4221    1.7233 Br        1 <0>        -0.1171
     19 H1          1.2895    3.1295   -0.2032 H         1 <0>         0.1219
     20 H2         -0.8531    1.9280   -0.0589 H         1 <0>         0.1232
     21 H3         -0.8871   -0.5330    0.0050 H         1 <0>         0.1281
     22 H4          3.4036    1.8803   -0.2933 H         1 <0>         0.1200
     23 H5          5.3632    0.1315   -0.3616 H         1 <0>         0.1180
     24 H6          6.8447   -1.8285   -0.3991 H         1 <0>         0.1217
     25 H7          5.8986   -4.0976   -0.2939 H         1 <0>         0.1242
     26 H8          3.4613   -4.4139   -0.1486 H         1 <0>         0.1276
     27 H9         -0.2918   -2.8109   -1.2463 H         1 <0>         0.1079
     28 H10         1.0838   -4.0386   -1.2947 H         1 <0>         0.1162
     29 O2          2.2683   -4.0353    2.4406 O.co2     1 <0>        -0.7228
@<TRIPOS>BOND
     1    1    6 ar
     2    1    2 ar
     3    1   19 1
     4    2    3 ar
     5    2   20 1
     6    3    4 ar
     7    3   21 1
     8    4   13 1
     9    4    5 ar
    10    5    6 ar
    11    5    7 1
    12    6   22 1
    13    7   12 ar
    14    7    8 ar
    15    8    9 ar
    16    8   23 1
    17    9   10 ar
    18    9   24 1
    19   10   11 ar
    20   10   25 1
    21   11   12 ar
    22   11   26 1
    23   12   13 1
    24   13   15 1
    25   13   14 1
    26   14   15 1
    27   14   27 1
    28   14   28 1
    29   15   16 1
    30   15   18 1
    31   16   17 2
    32   16   29 1
@<TRIPOS>MOLECULE
ZINC33698734
   29    30     0     0     0
SMALL
USER_CHARGES
2-fluoro-N-[2-(trifluoromethyl)phenyl]benzenesulfonamide
@<TRIPOS>ATOM
      1 C1          1.2848   -1.9476    0.1960 C.ar      1 <0>        -0.1832
      2 C2          0.2217   -2.5540   -0.4482 C.ar      1 <0>        -0.0762
      3 C3         -1.0042   -1.9212   -0.5064 C.ar      1 <0>        -0.1682
      4 C4         -1.1706   -0.6765    0.0881 C.ar      1 <0>         0.2779
      5 C5         -0.0996   -0.0683    0.7300 C.ar      1 <0>        -0.2335
      6 C6          1.1241   -0.7066    0.7841 C.ar      1 <0>        -0.0637
      7 C7         -0.2742    1.2838    1.3722 C.3       1 <0>         0.5210
      8 F1          0.9333    1.6824    1.9556 F         1 <0>        -0.2009
      9 F2         -0.6527    2.2163    0.4004 F         1 <0>        -0.1730
     10 F3         -1.2652    1.2080    2.3568 F         1 <0>        -0.1802
     11 N1         -2.4108   -0.0362    0.0360 N.2       1 <0>        -1.0827
     12 S1         -3.7282   -0.7221    0.7685 S.o2      1 <0>         2.5993
     13 O1         -4.8212    0.1580    0.5451 O.2       1 <0>        -0.9917
     14 O2         -3.7528   -2.0848    0.3662 O.2       1 <0>        -1.0291
     15 C8         -3.4222   -0.7148    2.5037 C.ar      1 <0>        -0.6864
     16 C9         -4.2122    0.0493    3.3418 C.ar      1 <0>        -0.0041
     17 C10        -3.9760    0.0508    4.7037 C.ar      1 <0>        -0.1599
     18 C11        -2.9422   -0.7030    5.2280 C.ar      1 <0>        -0.0612
     19 C12        -2.1475   -1.4631    4.3914 C.ar      1 <0>        -0.1810
     20 C13        -2.3868   -1.4699    3.0274 C.ar      1 <0>         0.1930
     21 F4         -1.6101   -2.2124    2.2085 F         1 <0>        -0.1171
     22 H1          2.2426   -2.4447    0.2401 H         1 <0>         0.1129
     23 H2          0.3505   -3.5237   -0.9059 H         1 <0>         0.1117
     24 H3         -1.8339   -2.3953   -1.0096 H         1 <0>         0.1290
     25 H4          1.9562   -0.2360    1.2867 H         1 <0>         0.1175
     26 H5         -5.0172    0.6420    2.9329 H         1 <0>         0.1416
     27 H6         -4.5966    0.6447    5.3583 H         1 <0>         0.1273
     28 H7         -2.7555   -0.6973    6.2917 H         1 <0>         0.1284
     29 H8         -1.3398   -2.0516    4.8011 H         1 <0>         0.1324
@<TRIPOS>BOND
     1    1    6 ar
     2    1    2 ar
     3    1   22 1
     4    2    3 ar
     5    2   23 1
     6    3    4 ar
     7    3   24 1
     8    4    5 ar
     9    4   11 1
    10    5    6 ar
    11    5    7 1
    12    6   25 1
    13    7    8 1
    14    7    9 1
    15    7   10 1
    16   11   12 1
    17   12   13 2
    18   12   14 2
    19   12   15 1
    20   15   20 ar
    21   15   16 ar
    22   16   17 ar
    23   16   26 1
    24   17   18 ar
    25   17   27 1
    26   18   19 ar
    27   18   28 1
    28   19   20 ar
    29   19   29 1
    30   20   21 1
@<TRIPOS>MOLECULE
ZINC41979218
   38    40     0     0     0
SMALL
USER_CHARGES

@<TRIPOS>ATOM
      1 C1          4.6399   -7.8011    2.1690 C.3       1 <0>        -0.1067
      2 C2          3.4972   -6.9852    1.6217 C.ar      1 <0>        -0.1082
      3 C3          3.3277   -6.8654    0.2541 C.ar      1 <0>        -0.1059
      4 C4          2.2820   -6.1188   -0.2508 C.ar      1 <0>        -0.1017
      5 C5          1.3987   -5.4872    0.6169 C.ar      1 <0>        -0.0508
      6 C6          1.5720   -5.6098    1.9901 C.ar      1 <0>        -0.1103
      7 C7          2.6171   -6.3629    2.4880 C.ar      1 <0>        -0.0838
      8 C8          2.8024   -6.5015    3.9771 C.3       1 <0>        -0.1076
      9 S1          0.0629   -4.5328   -0.0229 S.3       1 <0>        -0.1081
     10 C9          0.1299   -4.8278   -1.8115 C.3       1 <0>        -0.0761
     11 C10         0.0059   -6.3370   -2.1103 C.3       1 <0>        -0.0990
     12 C11        -0.7889   -6.3486   -3.4334 C.3       1 <0>        -0.0702
     13 C12        -1.5890   -5.0637   -3.4262 C.ar      1 <0>        -0.0765
     14 C13        -1.0609   -4.1896   -2.4941 C.ar      1 <0>        -0.0359
     15 C14        -1.6367   -2.9435   -2.3143 C.ar      1 <0>        -0.1000
     16 C15        -2.7363   -2.5711   -3.0631 C.ar      1 <0>        -0.1257
     17 C16        -3.2643   -3.4448   -3.9947 C.ar      1 <0>        -0.1272
     18 C17        -2.6910   -4.6887   -4.1757 C.ar      1 <0>        -0.1139
     19 C18         1.4138   -4.2834   -2.3827 C.2       1 <0>         0.5095
     20 O1          2.2295   -3.7506   -1.6497 O.co2     1 <0>        -0.6589
     21 O2          1.6369   -4.3757   -3.5778 O.co2     1 <0>        -0.6723
     22 H1          4.3196   -8.8350    2.2971 H         1 <0>         0.0625
     23 H2          5.4785   -7.7640    1.4736 H         1 <0>         0.0609
     24 H3          4.9483   -7.3943    3.1320 H         1 <0>         0.0627
     25 H4          4.0146   -7.3562   -0.4195 H         1 <0>         0.1164
     26 H5          2.1505   -6.0254   -1.3187 H         1 <0>         0.1353
     27 H6          0.8879   -5.1201    2.6673 H         1 <0>         0.1183
     28 H7          3.4429   -5.6977    4.3400 H         1 <0>         0.0652
     29 H8          1.8323   -6.4440    4.4708 H         1 <0>         0.0613
     30 H9          3.2659   -7.4631    4.1976 H         1 <0>         0.0641
     31 H10         0.9893   -6.7874   -2.2452 H         1 <0>         0.0786
     32 H11        -0.5487   -6.8440   -1.3207 H         1 <0>         0.0726
     33 H12        -0.1074   -6.3650   -4.2839 H         1 <0>         0.0900
     34 H13        -1.4565   -7.2096   -3.4660 H         1 <0>         0.0682
     35 H14        -1.2247   -2.2601   -1.5864 H         1 <0>         0.1192
     36 H15        -3.1832   -1.5983   -2.9203 H         1 <0>         0.1195
     37 H16        -4.1239   -3.1554   -4.5809 H         1 <0>         0.1184
     38 H17        -3.1041   -5.3709   -4.9039 H         1 <0>         0.1163
@<TRIPOS>BOND
     1    1    2 1
     2    1   22 1
     3    1   23 1
     4    1   24 1
     5    2    7 ar
     6    2    3 ar
     7    3    4 ar
     8    3   25 1
     9    4    5 ar
    10    4   26 1
    11    5    6 ar
    12    5    9 1
    13    6    7 ar
    14    6   27 1
    15    7    8 1
    16    8   28 1
    17    8   29 1
    18    8   30 1
    19    9   10 1
    20   10   14 1
    21   10   11 1
    22   10   19 1
    23   11   12 1
    24   11   31 1
    25   11   32 1
    26   12   13 1
    27   12   33 1
    28   12   34 1
    29   13   18 ar
    30   13   14 ar
    31   14   15 ar
    32   15   16 ar
    33   15   35 1
    34   16   17 ar
    35   16   36 1
    36   17   18 ar
    37   17   37 1
    38   18   38 1
    39   19   20 2
    40   19   21 1
@<TRIPOS>MOLECULE
ZINC49375360
   32    33     0     0     0
SMALL
USER_CHARGES

@<TRIPOS>ATOM
      1 C1         -0.0184    1.5028    0.0103 C.3       1 <0>        -0.1174
      2 C2          0.0021   -0.0041    0.0020 C.ar      1 <0>        -0.0518
      3 C3          0.0057   -0.6888   -1.1991 C.ar      1 <0>        -0.1436
      4 C4          0.0245   -2.0707   -1.2067 C.ar      1 <0>        -0.0248
      5 C5          0.0400   -2.7685   -0.0132 C.ar      1 <0>        -0.6165
      6 C6          0.0373   -2.0840    1.1875 C.ar      1 <0>        -0.0190
      7 C7          0.0229   -0.7015    1.1951 C.ar      1 <0>        -0.1162
      8 C8          0.0252    0.0449    2.5043 C.3       1 <0>        -0.1121
      9 S1          0.0628   -4.5303   -0.0229 S.o2      1 <0>         2.6101
     10 O1         -0.4759   -4.9503    1.2232 O.2       1 <0>        -1.0258
     11 O2         -0.4897   -4.9367   -1.2674 O.2       1 <0>        -1.0258
     12 N1          1.6509   -4.9994   -0.0342 N.2       1 <0>        -1.0782
     13 C9          1.9783   -6.3589   -0.0434 C.ar      1 <0>         0.2759
     14 C10         0.9728   -7.3168   -0.0489 C.ar      1 <0>        -0.2541
     15 C11         1.2979   -8.6593   -0.0584 C.ar      1 <0>        -0.0457
     16 C12         2.6235   -9.0524   -0.0626 C.ar      1 <0>        -0.2364
     17 C13         3.6306   -8.1018   -0.0568 C.ar      1 <0>         0.1014
     18 C14         3.3109   -6.7543   -0.0530 C.ar      1 <0>        -0.0060
     19 F1          4.2923   -5.8259   -0.0534 F         1 <0>        -0.1362
     20 F2          4.9249   -8.4889   -0.0604 F         1 <0>        -0.1456
     21 H1          1.0042    1.8801    0.0026 H         1 <0>         0.0729
     22 H2         -0.5455    1.8639   -0.8728 H         1 <0>         0.0668
     23 H3         -0.5286    1.8543    0.9071 H         1 <0>         0.0695
     24 H4         -0.0064   -0.1437   -2.1314 H         1 <0>         0.1259
     25 H5          0.0266   -2.6056   -2.1449 H         1 <0>         0.1361
     26 H6          0.0491   -2.6290    2.1199 H         1 <0>         0.1359
     27 H7         -1.0017    0.2110    2.8297 H         1 <0>         0.0682
     28 H8          0.5542   -0.5412    3.2558 H         1 <0>         0.0683
     29 H9          0.5249    1.0049    2.3743 H         1 <0>         0.0670
     30 H10        -0.0633   -7.0120   -0.0452 H         1 <0>         0.1118
     31 H11         0.5152   -9.4034   -0.0623 H         1 <0>         0.1207
     32 H12         2.8741  -10.1029   -0.0701 H         1 <0>         0.1247
@<TRIPOS>BOND
     1    1    2 1
     2    1   21 1
     3    1   22 1
     4    1   23 1
     5    2    7 ar
     6    2    3 ar
     7    3    4 ar
     8    3   24 1
     9    4    5 ar
    10    4   25 1
    11    5    6 ar
    12    5    9 1
    13    6    7 ar
    14    6   26 1
    15    7    8 1
    16    8   27 1
    17    8   28 1
    18    8   29 1
    19    9   10 2
    20    9   11 2
    21    9   12 1
    22   12   13 1
    23   13   18 ar
    24   13   14 ar
    25   14   15 ar
    26   14   30 1
    27   15   16 ar
    28   15   31 1
    29   16   17 ar
    30   16   32 1
    31   17   18 ar
    32   17   20 1
    33   18   19 1
@<TRIPOS>MOLECULE
ZINC62765874
   28    29     0     0     0
SMALL
USER_CHARGES

@<TRIPOS>ATOM
      1 C1         -0.0169    1.3928    0.0097 C.ar      1 <0>        -0.0953
      2 C2          1.1696    2.0964    0.0021 C.ar      1 <0>        -0.0880
      3 C3          2.3777    1.4228   -0.0135 C.ar      1 <0>        -0.1343
      4 C4          2.4055    0.0370   -0.0216 C.ar      1 <0>         0.0993
      5 C5          1.2248   -0.6798   -0.0138 C.ar      1 <0>        -0.1193
      6 C6          0.0021   -0.0041    0.0020 C.ar      1 <0>        -0.0904
      7 C7         -1.2636   -0.7623    0.0105 C.2       1 <0>         0.5191
      8 O1         -2.3323   -0.1681    0.0243 O.co2     1 <0>        -0.6781
      9 O2         -1.2439   -1.9851    0.0038 O.co2     1 <0>        -0.6788
     10 F1          3.5894   -0.6137   -0.0378 F         1 <0>        -0.1421
     11 C8          3.6693    2.1991   -0.0221 C.3       1 <0>        -0.0587
     12 S1          4.2046    2.5014    1.6845 S.3       1 <0>        -0.0748
     13 C9          5.7062    3.4059    1.5065 C.ar      1 <0>        -0.0667
     14 C10         6.1860    3.7152    0.2396 C.ar      1 <0>        -0.1193
     15 C11         7.3632    4.4242    0.1013 C.ar      1 <0>        -0.1010
     16 C12         8.0663    4.8272    1.2236 C.ar      1 <0>         0.0526
     17 C13         7.5907    4.5199    2.4895 C.ar      1 <0>         0.0900
     18 C14         6.4090    3.8155    2.6324 C.ar      1 <0>        -0.1126
     19 F2          8.2786    4.9138    3.5835 F         1 <0>        -0.1257
     20 F3          9.2175    5.5206    1.0855 F         1 <0>        -0.1297
     21 H1         -0.9588    1.9209    0.0260 H         1 <0>         0.1382
     22 H2          1.1553    3.1763    0.0081 H         1 <0>         0.1290
     23 H3          1.2467   -1.7596   -0.0205 H         1 <0>         0.1431
     24 H4          4.4340    1.6262   -0.5467 H         1 <0>         0.0993
     25 H5          3.5172    3.1518   -0.5294 H         1 <0>         0.1021
     26 H6          5.6386    3.4011   -0.6368 H         1 <0>         0.1415
     27 H7          7.7359    4.6641   -0.8835 H         1 <0>         0.1491
     28 H8          6.0355    3.5803    3.6181 H         1 <0>         0.1514
@<TRIPOS>BOND
     1    1    6 ar
     2    1    2 ar
     3    1   21 1
     4    2    3 ar
     5    2   22 1
     6    3    4 ar
     7    3   11 1
     8    4    5 ar
     9    4   10 1
    10    5    6 ar
    11    5   23 1
    12    6    7 1
    13    7    8 2
    14    7    9 1
    15   11   12 1
    16   11   24 1
    17   11   25 1
    18   12   13 1
    19   13   18 ar
    20   13   14 ar
    21   14   15 ar
    22   14   26 1
    23   15   16 ar
    24   15   27 1
    25   16   17 ar
    26   16   20 1
    27   17   18 ar
    28   17   19 1
    29   18   28 1
@<TRIPOS>MOLECULE
ZINC08877651
   80    84     0     0     0
SMALL
USER_CHARGES
10-hydroxy-1,2,6a,6b,9,9,12a-heptamethyl-2,3,4,5,6,6a,7,8,8a,10,11,12,13,14b-tetradecahydro-1H-picene-4a-carboxylic acid
@<TRIPOS>ATOM
      1 C1         -1.9602  -11.2593    2.3960 C.3       1 <0>        -0.1454
      2 C2         -3.0590  -10.3110    1.9035 C.3       1 <0>        -0.0843
      3 H1         -3.8187  -10.2165    2.6843 H         1 <0>         0.0547
      4 C3         -3.6974  -10.8863    0.6435 C.3       1 <0>        -0.1055
      5 C4         -4.7495   -9.9334    0.0857 C.3       1 <0>        -0.0939
      6 C5         -4.1008   -8.5840   -0.2762 C.3       1 <0>        -0.0858
      7 C6         -5.1992   -7.6648   -0.8077 C.3       1 <0>        -0.0998
      8 C7         -5.1685   -6.2623   -0.2253 C.3       1 <0>        -0.1039
      9 C8         -3.7524   -5.7039   -0.1318 C.3       1 <0>        -0.0056
     10 C9         -2.9661   -6.6063    0.8004 C.2       1 <0>        -0.0385
     11 C10        -1.9683   -6.1407    1.4849 C.2       1 <0>        -0.1953
     12 C11        -1.4920   -4.7220    1.4847 C.3       1 <0>        -0.0650
     13 C12        -2.3275   -3.8183    0.5985 C.3       1 <0>        -0.0631
     14 H2         -1.8690   -3.8908   -0.4164 H         1 <0>         0.0613
     15 C13        -3.7664   -4.2922    0.4931 C.3       1 <0>        -0.0235
     16 C14        -4.6106   -3.3639   -0.3719 C.3       1 <0>        -0.1121
     17 C15        -4.4396   -1.8967    0.0375 C.3       1 <0>        -0.1084
     18 C16        -2.9618   -1.5267   -0.0622 C.3       1 <0>        -0.0594
     19 H3         -2.6249   -1.8830   -1.0673 H         1 <0>         0.0603
     20 C17        -2.1633   -2.3386    0.9536 C.3       1 <0>        -0.0343
     21 C18        -0.6730   -1.9853    0.8041 C.3       1 <0>        -0.1114
     22 C19        -0.4750   -0.4916    1.0443 C.3       1 <0>        -0.1478
     23 C20        -1.2341    0.3131   -0.0023 C.3       1 <0>         0.1183
     24 H4         -0.8061    0.1098   -0.9906 H         1 <0>         0.0479
     25 C21        -2.7225   -0.0347   -0.0307 C.3       1 <0>        -0.0369
     26 C22        -3.4474    0.6667    1.1162 C.3       1 <0>        -0.1343
     27 C23        -3.2789    0.5650   -1.3480 C.3       1 <0>        -0.1476
     28 O1         -1.0856    1.7109    0.2738 O.3       1 <0>        -0.5666
     29 C24        -2.5747   -2.0500    2.3906 C.3       1 <0>        -0.1509
     30 C25        -4.4223   -4.4128    1.8773 C.3       1 <0>        -0.1508
     31 C26        -3.4543   -8.0195    0.9712 C.3       1 <0>        -0.0018
     32 H5         -4.3024   -7.9346    1.7188 H         1 <0>         0.0397
     33 C27        -2.4480   -8.9332    1.6363 C.3       1 <0>        -0.0593
     34 H6         -2.2085   -8.5016    2.6322 H         1 <0>         0.0421
     35 C28        -1.1290   -9.0836    0.8902 C.3       1 <0>        -0.1301
     36 C29        -3.1084   -5.6660   -1.5170 C.3       1 <0>        -0.1349
     37 C30        -3.1337   -8.8299   -1.4012 C.2       1 <0>         0.4818
     38 O2         -2.0141   -8.3790   -1.3448 O.co2     1 <0>        -0.6163
     39 H7         -1.5259  -10.8660    3.3151 H         1 <0>         0.0466
     40 H8         -2.3885  -12.2430    2.5883 H         1 <0>         0.0450
     41 H9         -1.1847  -11.3433    1.6346 H         1 <0>         0.0606
     42 H10        -2.9379  -11.1085   -0.1015 H         1 <0>         0.0682
     43 H11        -4.1908  -11.8346    0.9045 H         1 <0>         0.0419
     44 H12        -5.5227   -9.7618    0.8348 H         1 <0>         0.0399
     45 H13        -5.1985  -10.3612   -0.8097 H         1 <0>         0.0695
     46 H14        -6.1641   -8.1180   -0.5652 H         1 <0>         0.0460
     47 H15        -5.1137   -7.6087   -1.8913 H         1 <0>         0.0638
     48 H16        -5.6330   -6.3048    0.7605 H         1 <0>         0.0561
     49 H17        -5.7695   -5.6073   -0.8625 H         1 <0>         0.0530
     50 H18        -1.4427   -6.8141    2.1431 H         1 <0>         0.0955
     51 H19        -1.4880   -4.3670    2.5102 H         1 <0>         0.0617
     52 H20        -0.4615   -4.7152    1.1171 H         1 <0>         0.0573
     53 H21        -5.6673   -3.6314   -0.2658 H         1 <0>         0.0597
     54 H22        -4.3391   -3.4522   -1.4241 H         1 <0>         0.0636
     55 H23        -4.8207   -1.7495    1.0427 H         1 <0>         0.0645
     56 H24        -5.0290   -1.2825   -0.6494 H         1 <0>         0.0569
     57 H25        -0.0993   -2.5544    1.5353 H         1 <0>         0.0677
     58 H26        -0.3459   -2.2457   -0.2014 H         1 <0>         0.0619
     59 H27         0.5977   -0.2647    0.9512 H         1 <0>         0.0539
     60 H28        -0.7831   -0.2073    2.0455 H         1 <0>         0.0745
     61 H29        -3.3435    1.7461    1.0056 H         1 <0>         0.0587
     62 H30        -4.5039    0.3994    1.0957 H         1 <0>         0.0510
     63 H31        -3.0121    0.3551    2.0657 H         1 <0>         0.0574
     64 H32        -2.7561    0.1246   -2.1970 H         1 <0>         0.0491
     65 H33        -4.3442    0.3476   -1.4247 H         1 <0>         0.0552
     66 H34        -3.1274    1.6445   -1.3483 H         1 <0>         0.0578
     67 H35        -0.1666    2.0095    0.3081 H         1 <0>         0.3719
     68 H36        -3.6573   -2.1368    2.4830 H         1 <0>         0.0639
     69 H37        -2.0945   -2.7667    3.0569 H         1 <0>         0.0555
     70 H38        -2.2668   -1.0399    2.6607 H         1 <0>         0.0568
     71 H39        -5.3585   -4.9640    1.7888 H         1 <0>         0.0534
     72 H40        -3.7509   -4.9431    2.5526 H         1 <0>         0.0604
     73 H41        -4.6230   -3.4169    2.2723 H         1 <0>         0.0532
     74 H42        -0.7669   -8.1001    0.5906 H         1 <0>         0.0647
     75 H43        -0.3951   -9.5580    1.5416 H         1 <0>         0.0221
     76 H44        -1.2809   -9.7002    0.0043 H         1 <0>         0.0738
     77 H45        -2.0449   -5.4490   -1.4174 H         1 <0>         0.0520
     78 H46        -3.2381   -6.6322   -2.0045 H         1 <0>         0.0817
     79 H47        -3.5830   -4.8896   -2.1171 H         1 <0>         0.0387
     80 O3         -3.5141   -9.5502   -2.4680 O.co2     1 <0>        -0.7788
@<TRIPOS>BOND
     1    1    2 1
     2    1   39 1
     3    1   40 1
     4    1   41 1
     5    2    3 1
     6    2   33 1
     7    2    4 1
     8    4    5 1
     9    4   42 1
    10    4   43 1
    11    5    6 1
    12    5   44 1
    13    5   45 1
    14    6   31 1
    15    6    7 1
    16    6   37 1
    17    7    8 1
    18    7   46 1
    19    7   47 1
    20    8    9 1
    21    8   48 1
    22    8   49 1
    23    9   15 1
    24    9   10 1
    25    9   36 1
    26   10   11 2
    27   10   31 1
    28   11   12 1
    29   11   50 1
    30   12   13 1
    31   12   51 1
    32   12   52 1
    33   13   14 1
    34   13   20 1
    35   13   15 1
    36   15   16 1
    37   15   30 1
    38   16   17 1
    39   16   53 1
    40   16   54 1
    41   17   18 1
    42   17   55 1
    43   17   56 1
    44   18   19 1
    45   18   25 1
    46   18   20 1
    47   20   21 1
    48   20   29 1
    49   21   22 1
    50   21   57 1
    51   21   58 1
    52   22   23 1
    53   22   59 1
    54   22   60 1
    55   23   24 1
    56   23   25 1
    57   23   28 1
    58   25   26 1
    59   25   27 1
    60   26   61 1
    61   26   62 1
    62   26   63 1
    63   27   64 1
    64   27   65 1
    65   27   66 1
    66   28   67 1
    67   29   68 1
    68   29   69 1
    69   29   70 1
    70   30   71 1
    71   30   72 1
    72   30   73 1
    73   31   32 1
    74   31   33 1
    75   33   34 1
    76   33   35 1
    77   35   74 1
    78   35   75 1
    79   35   76 1
    80   36   77 1
    81   36   78 1
    82   36   79 1
    83   37   38 2
    84   37   80 1
@<TRIPOS>MOLECULE
ZINC20581407
   19    20     0     0     0
SMALL
USER_CHARGES
5-[(2,4,6-tribromophenyl)amino]-1,3,4-thiadiazole-2-thiol
@<TRIPOS>ATOM
      1 C1          0.5532    1.8131   -0.6064 C.ar      1 <0>        -0.0459
      2 C2          1.2078    1.9204    0.6079 C.ar      1 <0>        -0.0847
      3 C3          0.6481    2.6580    1.6361 C.ar      1 <0>        -0.0466
      4 C4         -0.5668    3.2904    1.4529 C.ar      1 <0>        -0.0811
      5 C5         -1.2266    3.1850    0.2344 C.ar      1 <0>         0.2432
      6 C6         -0.6592    2.4477   -0.7979 C.ar      1 <0>        -0.0759
      7 Br1        -1.5488    2.3073   -2.4607 Br        1 <0>        -0.0095
      8 N1         -2.4561    3.8242    0.0456 N.pl3     1 <0>        -0.6623
      9 C7         -3.6409    3.1298    0.2618 C.2       1 <0>         0.3196
     10 N2         -3.8220    1.8563    0.5524 N.2       1 <0>        -0.3569
     11 N3         -5.0962    1.3693    0.7314 N.2       1 <0>        -0.3479
     12 C8         -6.1316    2.1767    0.6013 C.2       1 <0>         0.3003
     13 S1         -5.3253    3.7225    0.2125 S.3       1 <0>        -0.1676
     14 S2         -7.8500    1.8245    0.7675 S.3       1 <0>        -0.6982
     15 Br2        -1.3311    4.2977    2.8590 Br        1 <0>        -0.0120
     16 Br3         2.8705    1.0567    0.8631 Br        1 <0>        -0.0287
     17 H1          0.9926    1.2363   -1.4068 H         1 <0>         0.1506
     18 H2          1.1615    2.7399    2.5828 H         1 <0>         0.1506
     19 H3         -2.4856    4.8763   -0.2740 H         1 <0>         0.4530
@<TRIPOS>BOND
     1    1    6 ar
     2    1    2 ar
     3    1   17 1
     4    2    3 ar
     5    2   16 1
     6    3    4 ar
     7    3   18 1
     8    4    5 ar
     9    4   15 1
    10    5    6 ar
    11    5    8 1
    12    6    7 1
    13    8    9 1
    14    8   19 1
    15    9   13 1
    16    9   10 2
    17   10   11 1
    18   11   12 2
    19   12   13 1
    20   12   14 1
@<TRIPOS>MOLECULE
ZINC35458160
   78    81     0     0     0
SMALL
USER_CHARGES

@<TRIPOS>ATOM
      1 C1          0.4082    2.8641    0.2485 C.3       1 <0>        -0.1536
      2 C2          0.5335    1.3472    0.4038 C.3       1 <0>        -0.0853
      3 H1          1.1148    0.9438   -0.4253 H         1 <0>         0.0767
      4 C3          1.2371    1.0261    1.7239 C.3       1 <0>        -0.1021
      5 C4          2.6745    1.5481    1.6758 C.3       1 <0>        -0.0819
      6 C5          3.3676    1.2318    2.9761 C.2       1 <0>        -0.1863
      7 C6          4.4840    0.5045    2.9762 C.2       1 <0>        -0.1572
      8 C7          5.1110    0.0866    4.2814 C.3       1 <0>        -0.1008
      9 C8          5.1030    0.1105    1.7058 C.2       1 <0>         0.5254
     10 O1          5.9951    0.7942    1.2218 O.co2     1 <0>        -0.6956
     11 O2          4.7272   -0.9019    1.1301 O.co2     1 <0>        -0.6934
     12 C9         -0.8610    0.7175    0.4029 C.3       1 <0>        -0.0666
     13 H2         -1.4499    1.1030    1.2351 H         1 <0>         0.0678
     14 C10        -0.7540   -0.8270    0.4894 C.3       1 <0>        -0.1211
     15 C11        -1.5028   -1.3877   -0.7529 C.3       1 <0>        -0.1048
     16 C12        -2.4681   -0.2562   -1.1022 C.3       1 <0>        -0.0248
     17 C13        -1.5661    0.9972   -0.9177 C.3       1 <0>        -0.0463
     18 C14        -2.4954    2.1941   -0.9759 C.3       1 <0>        -0.1110
     19 C15        -2.9047    2.3733   -2.4415 C.3       1 <0>        -0.1184
     20 C16        -3.3334    1.1183   -3.1402 C.3       1 <0>        -0.0295
     21 H3         -2.7546    1.0863   -4.0633 H         1 <0>         0.0611
     22 C17        -3.0330   -0.2015   -2.4656 C.2       1 <0>        -0.0648
     23 C18        -3.3743   -1.2833   -3.1444 C.2       1 <0>        -0.1844
     24 C19        -3.9387   -1.0671   -4.5302 C.3       1 <0>        -0.0912
     25 C20        -5.1005   -0.0581   -4.4892 C.3       1 <0>        -0.0440
     26 H4         -5.9720   -0.5643   -4.0741 H         1 <0>         0.0767
     27 C21        -4.7757    1.0986   -3.5823 C.3       1 <0>        -0.0561
     28 C22        -5.4374    2.4157   -3.7469 C.3       1 <0>        -0.1048
     29 C23        -5.6658    2.8459   -5.1832 C.3       1 <0>        -0.1671
     30 C24        -6.0807    1.6815   -6.0282 C.2       1 <0>         0.3758
     31 O3         -6.9757    1.8289   -6.8253 O.2       1 <0>        -0.4623
     32 C25        -5.4214    0.3354   -5.9217 C.3       1 <0>        -0.1039
     33 C26        -4.1214    0.3565   -6.7282 C.3       1 <0>        -0.1413
     34 C27        -6.3517   -0.7194   -6.5241 C.3       1 <0>        -0.1364
     35 C28        -5.4402    0.6288   -2.2866 C.3       1 <0>        -0.1759
     36 C29        -0.5398    1.0704   -2.0500 C.3       1 <0>        -0.1557
     37 C30        -3.6006   -0.2113   -0.0745 C.3       1 <0>        -0.1477
     38 H5          1.4016    3.3127    0.2492 H         1 <0>         0.0558
     39 H6         -0.0931    3.0929   -0.6920 H         1 <0>         0.0598
     40 H7         -0.1732    3.2675    1.0776 H         1 <0>         0.0483
     41 H8          0.7041    1.5046    2.5455 H         1 <0>         0.0500
     42 H9          1.2474   -0.0531    1.8771 H         1 <0>         0.0632
     43 H10         3.2075    1.0696    0.8542 H         1 <0>         0.0747
     44 H11         2.6642    2.6272    1.5227 H         1 <0>         0.0546
     45 H12         2.9594    1.5947    3.9078 H         1 <0>         0.0914
     46 H13         4.7012   -0.8752    4.5898 H         1 <0>         0.0606
     47 H14         6.1899   -0.0021    4.1543 H         1 <0>         0.0571
     48 H15         4.8953    0.8349    5.0441 H         1 <0>         0.0494
     49 H16         0.2923   -1.1316    0.4646 H         1 <0>         0.0740
     50 H17        -1.2268   -1.1843    1.4042 H         1 <0>         0.0596
     51 H18        -0.8083   -1.5702   -1.5729 H         1 <0>         0.0690
     52 H19        -2.0485   -2.2961   -0.4977 H         1 <0>         0.0599
     53 H20        -3.3779    2.0098   -0.3632 H         1 <0>         0.0700
     54 H21        -1.9763    3.0853   -0.6232 H         1 <0>         0.0688
     55 H22        -3.7271    3.0875   -2.4834 H         1 <0>         0.0719
     56 H23        -2.0599    2.7971   -2.9845 H         1 <0>         0.0652
     57 H24        -3.2554   -2.2732   -2.7294 H         1 <0>         0.1139
     58 H25        -3.1536   -0.6851   -5.1827 H         1 <0>         0.0850
     59 H26        -4.3012   -2.0171   -4.9230 H         1 <0>         0.0663
     60 H27        -6.4025    2.3806   -3.2414 H         1 <0>         0.0697
     61 H28        -4.8247    3.1715   -3.2554 H         1 <0>         0.0933
     62 H29        -6.4475    3.6051   -5.2101 H         1 <0>         0.0901
     63 H30        -4.7433    3.2679   -5.5821 H         1 <0>         0.0981
     64 H31        -3.7360   -0.6587   -6.8228 H         1 <0>         0.0758
     65 H32        -4.3155    0.7653   -7.7198 H         1 <0>         0.0545
     66 H33        -3.3864    0.9778   -6.2165 H         1 <0>         0.0661
     67 H34        -7.2704   -0.7700   -5.9396 H         1 <0>         0.0553
     68 H35        -6.5899   -0.4489   -7.5527 H         1 <0>         0.0637
     69 H36        -5.8575   -1.6908   -6.5090 H         1 <0>         0.0634
     70 H37        -5.1823    1.3121   -1.4775 H         1 <0>         0.0594
     71 H38        -6.5222    0.6132   -2.4181 H         1 <0>         0.0408
     72 H39        -5.0896   -0.3737   -2.0413 H         1 <0>         0.0748
     73 H40         0.0099    0.1306   -2.1034 H         1 <0>         0.0564
     74 H41        -1.0535    1.2450   -2.9953 H         1 <0>         0.0573
     75 H42         0.1555    1.8876   -1.8579 H         1 <0>         0.0663
     76 H43        -3.1822   -0.0640    0.9211 H         1 <0>         0.0593
     77 H44        -4.2736    0.6129   -0.3113 H         1 <0>         0.0695
     78 H45        -4.1530   -1.1506   -0.1013 H         1 <0>         0.0487
@<TRIPOS>BOND
     1    1    2 1
     2    1   38 1
     3    1   39 1
     4    1   40 1
     5    2    3 1
     6    2    4 1
     7    2   12 1
     8    4    5 1
     9    4   41 1
    10    4   42 1
    11    5    6 1
    12    5   43 1
    13    5   44 1
    14    6    7 2
    15    6   45 1
    16    7    8 1
    17    7    9 1
    18    8   46 1
    19    8   47 1
    20    8   48 1
    21    9   10 2
    22    9   11 1
    23   12   13 1
    24   12   17 1
    25   12   14 1
    26   14   15 1
    27   14   49 1
    28   14   50 1
    29   15   16 1
    30   15   51 1
    31   15   52 1
    32   16   22 1
    33   16   17 1
    34   16   37 1
    35   17   18 1
    36   17   36 1
    37   18   19 1
    38   18   53 1
    39   18   54 1
    40   19   20 1
    41   19   55 1
    42   19   56 1
    43   20   21 1
    44   20   27 1
    45   20   22 1
    46   22   23 2
    47   23   24 1
    48   23   57 1
    49   24   25 1
    50   24   58 1
    51   24   59 1
    52   25   26 1
    53   25   32 1
    54   25   27 1
    55   27   28 1
    56   27   35 1
    57   28   29 1
    58   28   60 1
    59   28   61 1
    60   29   30 1
    61   29   62 1
    62   29   63 1
    63   30   31 2
    64   30   32 1
    65   32   33 1
    66   32   34 1
    67   33   64 1
    68   33   65 1
    69   33   66 1
    70   34   67 1
    71   34   68 1
    72   34   69 1
    73   35   70 1
    74   35   71 1
    75   35   72 1
    76   36   73 1
    77   36   74 1
    78   36   75 1
    79   37   76 1
    80   37   77 1
    81   37   78 1
@<TRIPOS>MOLECULE
ZINC25980356
   80    84     0     0     0
SMALL
USER_CHARGES

@<TRIPOS>ATOM
      1 C1          0.0370    1.5145    0.4090 C.3       1 <0>        -0.1548
      2 C2          0.0349   -0.0090    0.3426 C.3       1 <0>        -0.0325
      3 C3         -1.4226   -0.4849    0.4939 C.3       1 <0>        -0.1073
      4 C4         -1.9599   -0.0523    1.8540 C.3       1 <0>        -0.1472
      5 C5         -1.1604   -0.6910    2.9799 C.3       1 <0>         0.1205
      6 H1         -1.5067   -0.2780    3.9377 H         1 <0>         0.0428
      7 C6          0.3412   -0.4365    2.8608 C.3       1 <0>        -0.0370
      8 C7          0.8562   -0.6437    1.4561 C.3       1 <0>        -0.0562
      9 H2          0.8182   -1.7478    1.2672 H         1 <0>         0.0621
     10 C8          2.3255   -0.2540    1.2926 C.3       1 <0>        -0.1159
     11 C9          2.8238   -0.9412    0.0083 C.3       1 <0>        -0.1100
     12 C10         2.0581   -0.4176   -1.2029 C.3       1 <0>        -0.0224
     13 C11         0.5505   -0.5058   -1.0078 C.3       1 <0>        -0.0547
     14 H3          0.2575   -1.5740   -1.0783 H         1 <0>         0.0582
     15 C12        -0.1480    0.2233   -2.1577 C.3       1 <0>        -0.0750
     16 C13         0.3498   -0.3396   -3.4621 C.2       1 <0>        -0.1717
     17 C14         1.4891   -0.9504   -3.5946 C.2       1 <0>        -0.0550
     18 C15         2.4491   -1.2002   -2.4603 C.3       1 <0>         0.0043
     19 C16         3.8867   -0.9106   -2.8710 C.3       1 <0>        -0.0970
     20 C17         4.2291   -1.5244   -4.2301 C.3       1 <0>        -0.0925
     21 C18         3.2710   -1.0048   -5.3055 C.3       1 <0>        -0.1164
     22 C19         1.8645   -1.4927   -4.9627 C.3       1 <0>        -0.0126
     23 H4          1.8746   -2.5892   -4.9058 H         1 <0>         0.0452
     24 C20         0.8617   -1.0540   -6.0173 C.3       1 <0>        -0.0968
     25 C21         1.2661   -1.5586   -7.4019 C.3       1 <0>        -0.0598
     26 C22         2.6891   -1.1333   -7.7470 C.3       1 <0>        -0.0954
     27 C23         3.6844   -1.5510   -6.6709 C.3       1 <0>        -0.0896
     28 C24         0.3077   -0.9563   -8.4415 C.3       1 <0>        -0.1394
     29 C25         1.1463   -3.0827   -7.4611 C.3       1 <0>        -0.1367
     30 C26         3.3182    0.4992   -5.3330 C.2       1 <0>         0.5170
     31 O1          4.3678    1.0719   -5.5710 O.co2     1 <0>        -0.7113
     32 O2          2.3067    1.1448   -5.1173 O.co2     1 <0>        -0.6784
     33 C27         2.3566   -2.7010   -2.1487 C.3       1 <0>        -0.1456
     34 C28         2.4711    1.0470   -1.4288 C.3       1 <0>        -0.1546
     35 C29         1.0303   -1.4767    3.7814 C.3       1 <0>        -0.1388
     36 C30         0.6828    0.9442    3.4213 C.3       1 <0>        -0.1460
     37 O3         -1.3991   -2.1032    2.9959 O.3       1 <0>        -0.5626
     38 H5          1.0635    1.8736    0.4824 H         1 <0>         0.0641
     39 H6         -0.4256    1.9181   -0.4916 H         1 <0>         0.0593
     40 H7         -0.5255    1.8408    1.2838 H         1 <0>         0.0527
     41 H8         -2.0241   -0.0410   -0.2981 H         1 <0>         0.0626
     42 H9         -1.4500   -1.5703    0.4108 H         1 <0>         0.0641
     43 H10        -1.9654    1.0295    1.9524 H         1 <0>         0.0738
     44 H11        -3.0059   -0.3898    1.9338 H         1 <0>         0.0533
     45 H12         2.4573    0.8147    1.2247 H         1 <0>         0.0679
     46 H13         2.9144   -0.6383    2.1278 H         1 <0>         0.0549
     47 H14         3.8876   -0.7295   -0.1076 H         1 <0>         0.0585
     48 H15         2.6812   -2.0094    0.1538 H         1 <0>         0.0607
     49 H16        -1.2267    0.0355   -2.0963 H         1 <0>         0.0498
     50 H17         0.0184    1.2917   -2.1439 H         1 <0>         0.0740
     51 H18        -0.2874   -0.2230   -4.3262 H         1 <0>         0.1001
     52 H19         4.1284    0.1443   -2.8983 H         1 <0>         0.0747
     53 H20         4.5548   -1.3709   -2.1212 H         1 <0>         0.0387
     54 H21         5.2495   -1.2387   -4.5036 H         1 <0>         0.0550
     55 H22         4.1701   -2.6092   -4.1842 H         1 <0>         0.0412
     56 H23        -0.1231   -1.4750   -5.7700 H         1 <0>         0.0362
     57 H24         0.7666    0.0314   -6.0348 H         1 <0>         0.0975
     58 H25         2.9751   -1.6066   -8.6962 H         1 <0>         0.0411
     59 H26         2.7217   -0.0532   -7.8971 H         1 <0>         0.0619
     60 H27         4.6748   -1.1533   -6.9229 H         1 <0>         0.0568
     61 H28         3.7572   -2.6379   -6.6215 H         1 <0>         0.0406
     62 H29         0.3730    0.1313   -8.4089 H         1 <0>         0.0545
     63 H30         0.5834   -1.3071   -9.4360 H         1 <0>         0.0451
     64 H31        -0.7130   -1.2659   -8.2170 H         1 <0>         0.0470
     65 H32         0.1152   -3.3742   -7.2611 H         1 <0>         0.0462
     66 H33         1.4368   -3.4318   -8.4520 H         1 <0>         0.0446
     67 H34         1.8015   -3.5280   -6.7125 H         1 <0>         0.0542
     68 H35         1.3358   -2.9495   -1.8583 H         1 <0>         0.0490
     69 H36         2.6320   -3.2736   -3.0343 H         1 <0>         0.0523
     70 H37         3.0363   -2.9451   -1.3322 H         1 <0>         0.0512
     71 H38         3.5362    1.0933   -1.6556 H         1 <0>         0.0522
     72 H39         1.9036    1.4600   -2.2627 H         1 <0>         0.0738
     73 H40         2.2660    1.6253   -0.5279 H         1 <0>         0.0493
     74 H41         0.7754   -2.4825    3.4477 H         1 <0>         0.0643
     75 H42         2.1110   -1.3420    3.7365 H         1 <0>         0.0503
     76 H43         0.6889   -1.3367    4.8070 H         1 <0>         0.0454
     77 H44         0.5049    0.9541    4.4966 H         1 <0>         0.0499
     78 H45         1.7315    1.1669    3.2245 H         1 <0>         0.0644
     79 H46         0.0556    1.6961    2.9424 H         1 <0>         0.0600
     80 H47        -2.3256   -2.3439    3.1326 H         1 <0>         0.3696
@<TRIPOS>BOND
     1    1    2 1
     2    1   38 1
     3    1   39 1
     4    1   40 1
     5    2    8 1
     6    2   13 1
     7    2    3 1
     8    3    4 1
     9    3   41 1
    10    3   42 1
    11    4    5 1
    12    4   43 1
    13    4   44 1
    14    5    6 1
    15    5    7 1
    16    5   37 1
    17    7    8 1
    18    7   35 1
    19    7   36 1
    20    8    9 1
    21    8   10 1
    22   10   11 1
    23   10   45 1
    24   10   46 1
    25   11   12 1
    26   11   47 1
    27   11   48 1
    28   12   18 1
    29   12   13 1
    30   12   34 1
    31   13   14 1
    32   13   15 1
    33   15   16 1
    34   15   49 1
    35   15   50 1
    36   16   17 2
    37   16   51 1
    38   17   22 1
    39   17   18 1
    40   18   19 1
    41   18   33 1
    42   19   20 1
    43   19   52 1
    44   19   53 1
    45   20   21 1
    46   20   54 1
    47   20   55 1
    48   21   27 1
    49   21   22 1
    50   21   30 1
    51   22   23 1
    52   22   24 1
    53   24   25 1
    54   24   56 1
    55   24   57 1
    56   25   26 1
    57   25   28 1
    58   25   29 1
    59   26   27 1
    60   26   58 1
    61   26   59 1
    62   27   60 1
    63   27   61 1
    64   28   62 1
    65   28   63 1
    66   28   64 1
    67   29   65 1
    68   29   66 1
    69   29   67 1
    70   30   31 2
    71   30   32 1
    72   33   68 1
    73   33   69 1
    74   33   70 1
    75   34   71 1
    76   34   72 1
    77   34   73 1
    78   35   74 1
    79   35   75 1
    80   35   76 1
    81   36   77 1
    82   36   78 1
    83   36   79 1
    84   37   80 1
@<TRIPOS>MOLECULE
ZINC43735397
   80    84     0     0     0
SMALL
USER_CHARGES

@<TRIPOS>ATOM
      1 C1         -2.0919   -1.4834    0.5302 C.3       1 <0>        -0.1479
      2 C2         -1.4826   -2.8692    0.7256 C.3       1 <0>        -0.0813
      3 H1         -1.0167   -3.1813   -0.2200 H         1 <0>         0.0527
      4 C3         -2.5569   -3.8872    1.0946 C.3       1 <0>        -0.1092
      5 C4         -3.1569   -3.5688    2.4578 C.3       1 <0>        -0.0911
      6 C5         -2.0830   -3.5315    3.5423 C.3       1 <0>        -0.1151
      7 C6         -1.4685   -4.9124    3.7394 C.3       1 <0>        -0.0855
      8 C7         -0.5088   -4.9127    4.9309 C.3       1 <0>        -0.0989
      9 C8          0.6047   -3.8868    4.7657 C.3       1 <0>         0.0078
     10 C9          0.0913   -2.5779    4.2435 C.2       1 <0>        -0.0459
     11 C10         0.5210   -1.4199    4.6740 C.2       1 <0>        -0.1712
     12 C11         1.5653   -1.2358    5.7358 C.3       1 <0>        -0.0728
     13 C12         2.3425   -2.5382    5.9288 C.3       1 <0>        -0.0545
     14 H2          2.9253   -2.6994    4.9979 H         1 <0>         0.0585
     15 C13         1.3665   -3.6940    6.0888 C.3       1 <0>        -0.0241
     16 C14         2.0556   -4.9941    6.4854 C.3       1 <0>        -0.1109
     17 C15         2.9891   -4.7750    7.6870 C.3       1 <0>        -0.1143
     18 C16         4.0416   -3.7491    7.2693 C.3       1 <0>        -0.0551
     19 H3          4.3978   -4.0802    6.2597 H         1 <0>         0.0621
     20 C17         3.3756   -2.3987    7.0478 C.3       1 <0>        -0.0326
     21 C18         4.4463   -1.3990    6.5746 C.3       1 <0>        -0.1069
     22 C19         5.5382   -1.2846    7.6339 C.3       1 <0>        -0.1478
     23 C20         6.2333   -2.6240    7.8313 C.3       1 <0>         0.1205
     24 H4          6.9514   -2.5310    8.6574 H         1 <0>         0.0426
     25 C21         5.2575   -3.7502    8.1657 C.3       1 <0>        -0.0371
     26 C22         4.8972   -3.7046    9.6509 C.3       1 <0>        -0.1468
     27 C23         6.0265   -5.0751    7.9308 C.3       1 <0>        -0.1384
     28 O1          6.9627   -2.9682    6.6479 O.3       1 <0>        -0.5621
     29 C24         2.7472   -1.8415    8.3207 C.3       1 <0>        -0.1551
     30 C25         0.3226   -3.3534    7.1643 C.3       1 <0>        -0.1552
     31 C26        -0.9872   -2.5322    3.1747 C.3       1 <0>        -0.0080
     32 H5         -1.4230   -1.5207    3.1716 H         1 <0>         0.0679
     33 C27        -0.3991   -2.8334    1.8041 C.3       1 <0>        -0.0804
     34 H6          0.0941   -3.8080    1.8062 H         1 <0>         0.0674
     35 C28         0.6290   -1.7594    1.4282 C.3       1 <0>        -0.1464
     36 C29         1.5952   -4.4439    3.7350 C.3       1 <0>        -0.1501
     37 C30        -2.7429   -3.0806    4.8268 C.2       1 <0>         0.5075
     38 O2         -3.6552   -3.7329    5.3051 O.co2     1 <0>        -0.7086
     39 O3         -2.3624   -2.0649    5.3837 O.co2     1 <0>        -0.6826
     40 H7         -1.3091   -0.7784    0.2504 H         1 <0>         0.0527
     41 H8         -2.8427   -1.5246   -0.2589 H         1 <0>         0.0446
     42 H9         -2.5591   -1.1576    1.4596 H         1 <0>         0.0610
     43 H10        -3.3471   -3.8687    0.3376 H         1 <0>         0.0484
     44 H11        -2.1196   -4.8886    1.1112 H         1 <0>         0.0546
     45 H12        -3.6752   -2.6096    2.4294 H         1 <0>         0.0505
     46 H13        -3.8901   -4.3415    2.7167 H         1 <0>         0.0561
     47 H14        -2.2694   -5.6346    3.9321 H         1 <0>         0.0518
     48 H15        -0.9410   -5.2176    2.8371 H         1 <0>         0.0438
     49 H16        -1.0775   -4.7984    5.8436 H         1 <0>         0.0732
     50 H17        -0.0421   -5.9147    4.9766 H         1 <0>         0.0374
     51 H18         0.0873   -0.5328    4.2309 H         1 <0>         0.0894
     52 H19         2.2574   -0.4512    5.4058 H         1 <0>         0.0507
     53 H20         1.0836   -0.9016    6.6490 H         1 <0>         0.0719
     54 H21         1.3012   -5.7350    6.7658 H         1 <0>         0.0581
     55 H22         2.6665   -5.4017    5.6838 H         1 <0>         0.0613
     56 H23         2.4188   -4.4431    8.5434 H         1 <0>         0.0660
     57 H24         3.4636   -5.7307    7.9214 H         1 <0>         0.0546
     58 H25         4.8729   -1.7526    5.6375 H         1 <0>         0.0645
     59 H26         3.9809   -0.4258    6.4208 H         1 <0>         0.0622
     60 H27         6.2831   -0.5530    7.2845 H         1 <0>         0.0533
     61 H28         5.1401   -0.9148    8.5748 H         1 <0>         0.0743
     62 H29         4.1911   -4.5032    9.8782 H         1 <0>         0.0635
     63 H30         5.7996   -3.8368   10.2479 H         1 <0>         0.0494
     64 H31         4.4442   -2.7414    9.8855 H         1 <0>         0.0618
     65 H32         6.3299   -5.1387    6.8858 H         1 <0>         0.0639
     66 H33         6.9105   -5.1000    8.5679 H         1 <0>         0.0454
     67 H34         5.3799   -5.9184    8.1734 H         1 <0>         0.0503
     68 H35         7.6456   -2.3275    6.4064 H         1 <0>         0.3696
     69 H36         2.1323   -2.6102    8.7890 H         1 <0>         0.0651
     70 H37         3.5338   -1.5354    9.0104 H         1 <0>         0.0527
     71 H38         2.1262   -0.9807    8.0727 H         1 <0>         0.0597
     72 H39        -0.3730   -4.1857    7.2719 H         1 <0>         0.0490
     73 H40         0.8253   -3.1748    8.1148 H         1 <0>         0.0480
     74 H41        -0.2247   -2.4583    6.8688 H         1 <0>         0.0805
     75 H42         0.1351   -0.7897    1.3657 H         1 <0>         0.0526
     76 H43         1.4092   -1.7214    2.1884 H         1 <0>         0.0563
     77 H44         1.0734   -2.0037    0.4634 H         1 <0>         0.0414
     78 H45         1.0614   -4.7002    2.8198 H         1 <0>         0.0564
     79 H46         2.3525   -3.6915    3.5153 H         1 <0>         0.0500
     80 H47         2.0752   -5.3359    4.1376 H         1 <0>         0.0530
@<TRIPOS>BOND
     1    1    2 1
     2    1   40 1
     3    1   41 1
     4    1   42 1
     5    2    3 1
     6    2   33 1
     7    2    4 1
     8    4    5 1
     9    4   43 1
    10    4   44 1
    11    5    6 1
    12    5   45 1
    13    5   46 1
    14    6   31 1
    15    6    7 1
    16    6   37 1
    17    7    8 1
    18    7   47 1
    19    7   48 1
    20    8    9 1
    21    8   49 1
    22    8   50 1
    23    9   15 1
    24    9   10 1
    25    9   36 1
    26   10   11 2
    27   10   31 1
    28   11   12 1
    29   11   51 1
    30   12   13 1
    31   12   52 1
    32   12   53 1
    33   13   14 1
    34   13   20 1
    35   13   15 1
    36   15   16 1
    37   15   30 1
    38   16   17 1
    39   16   54 1
    40   16   55 1
    41   17   18 1
    42   17   56 1
    43   17   57 1
    44   18   19 1
    45   18   25 1
    46   18   20 1
    47   20   21 1
    48   20   29 1
    49   21   22 1
    50   21   58 1
    51   21   59 1
    52   22   23 1
    53   22   60 1
    54   22   61 1
    55   23   24 1
    56   23   25 1
    57   23   28 1
    58   25   26 1
    59   25   27 1
    60   26   62 1
    61   26   63 1
    62   26   64 1
    63   27   65 1
    64   27   66 1
    65   27   67 1
    66   28   68 1
    67   29   69 1
    68   29   70 1
    69   29   71 1
    70   30   72 1
    71   30   73 1
    72   30   74 1
    73   31   32 1
    74   31   33 1
    75   33   34 1
    76   33   35 1
    77   35   75 1
    78   35   76 1
    79   35   77 1
    80   36   78 1
    81   36   79 1
    82   36   80 1
    83   37   38 2
    84   37   39 1
@<TRIPOS>MOLECULE
ZINC05002849
   43    45     0     0     0
SMALL
USER_CHARGES
4-[2-(1,3,3-trimethylindolin-2-ylidene)ethylideneamino]benzoic acid
@<TRIPOS>ATOM
      1 C1          4.2002    2.4083    1.2952 C.3       1 <0>        -0.1288
      2 C2          3.3703    2.4269    0.0100 C.3       1 <0>         0.0074
      3 C3          2.3980    1.2699   -0.0086 C.ar      1 <0>        -0.1417
      4 C4          2.5746   -0.0960    0.0116 C.ar      1 <0>        -0.0605
      5 C5          1.4748   -0.9354   -0.0154 C.ar      1 <0>        -0.1541
      6 C6          0.2007   -0.3991   -0.0625 C.ar      1 <0>        -0.0809
      7 C7          0.0202    0.9679   -0.0824 C.ar      1 <0>        -0.1535
      8 C8          1.1236    1.8205   -0.0555 C.ar      1 <0>         0.1596
      9 N1          1.1953    3.2121   -0.0675 N.pl3     1 <0>        -0.5360
     10 C9          2.4862    3.6552   -0.0303 C.2       1 <0>         0.1879
     11 C10         2.8965    4.9442   -0.0309 C.2       1 <0>        -0.2169
     12 C11         1.9535    5.9826    0.0756 C.2       1 <0>         0.1603
     13 N2          2.3383    7.2328   -0.0361 N.2       1 <0>        -0.4880
     14 C12         1.4248    8.2386    0.0670 C.ar      1 <0>         0.0756
     15 C13         0.2021    8.1463   -0.6093 C.ar      1 <0>        -0.1699
     16 C14        -0.7145    9.1512   -0.5016 C.ar      1 <0>        -0.0647
     17 C15        -0.4280   10.2797    0.2754 C.ar      1 <0>        -0.1191
     18 C16         0.7963   10.3747    0.9472 C.ar      1 <0>        -0.0748
     19 C17         1.7110    9.3676    0.8446 C.ar      1 <0>        -0.1215
     20 C18        -1.4152   11.3673    0.3864 C.2       1 <0>         0.4884
     21 O1         -1.1668   12.3469    1.0613 O.co2     1 <0>        -0.6314
     22 C19         0.0261    4.0937   -0.1148 C.3       1 <0>         0.0743
     23 C20         4.2815    2.3804   -1.2182 C.3       1 <0>        -0.1294
     24 H1          4.7596    1.4746    1.3530 H         1 <0>         0.0659
     25 H2          4.8947    3.2484    1.2913 H         1 <0>         0.0696
     26 H3          3.5375    2.4888    2.1568 H         1 <0>         0.0597
     27 H4          3.5708   -0.5116    0.0481 H         1 <0>         0.1245
     28 H5          1.6109   -2.0066    0.0008 H         1 <0>         0.1260
     29 H6         -0.6574   -1.0545   -0.0835 H         1 <0>         0.1273
     30 H7         -0.9776    1.3792   -0.1234 H         1 <0>         0.1227
     31 H8          3.9482    5.1761   -0.1130 H         1 <0>         0.1436
     32 H9          0.9129    5.7513    0.2491 H         1 <0>         0.1058
     33 H10        -0.0171    7.2778   -1.2127 H         1 <0>         0.1107
     34 H11        -1.6595    9.0779   -1.0193 H         1 <0>         0.1311
     35 H12         1.0167   11.2453    1.5472 H         1 <0>         0.1308
     36 H13         2.6554    9.4408    1.3633 H         1 <0>         0.1209
     37 H14        -0.8758    3.4946   -0.2400 H         1 <0>         0.0841
     38 H15        -0.0398    4.6599    0.8142 H         1 <0>         0.0774
     39 H16         0.1242    4.7825   -0.9539 H         1 <0>         0.0789
     40 H17         3.6759    2.4412   -2.1225 H         1 <0>         0.0597
     41 H18         4.9749    3.2209   -1.1882 H         1 <0>         0.0692
     42 H19         4.8428    1.4461   -1.2190 H         1 <0>         0.0658
     43 O2         -2.5942   11.2759   -0.2605 O.co2     1 <0>        -0.7560
@<TRIPOS>BOND
     1    1    2 1
     2    1   24 1
     3    1   25 1
     4    1   26 1
     5    2   10 1
     6    2    3 1
     7    2   23 1
     8    3    8 ar
     9    3    4 ar
    10    4    5 ar
    11    4   27 1
    12    5    6 ar
    13    5   28 1
    14    6    7 ar
    15    6   29 1
    16    7    8 ar
    17    7   30 1
    18    8    9 1
    19    9   10 1
    20    9   22 1
    21   10   11 2
    22   11   12 1
    23   11   31 1
    24   12   13 2
    25   12   32 1
    26   13   14 1
    27   14   19 ar
    28   14   15 ar
    29   15   16 ar
    30   15   33 1
    31   16   17 ar
    32   16   34 1
    33   17   18 ar
    34   17   20 1
    35   18   19 ar
    36   18   35 1
    37   19   36 1
    38   20   21 2
    39   20   43 1
    40   22   37 1
    41   22   38 1
    42   22   39 1
    43   23   40 1
    44   23   41 1
    45   23   42 1
@<TRIPOS>MOLECULE
ZINC06184743
   31    33     0     0     0
SMALL
USER_CHARGES
4-(3-chloro-4-methyl-phenyl)-5-(4-chlorophenyl)-1,2,4-triazole-3-thiol
@<TRIPOS>ATOM
      1 C1          4.9471    7.0940    1.1026 C.3       1 <0>        -0.1148
      2 C2          4.6233    5.6437    0.8522 C.ar      1 <0>        -0.0747
      3 C3          4.9831    4.6857    1.7822 C.ar      1 <0>        -0.0980
      4 C4          4.6869    3.3559    1.5562 C.ar      1 <0>        -0.0794
      5 C5          4.0274    2.9803    0.3934 C.ar      1 <0>         0.1625
      6 C6          3.6720    3.9425   -0.5416 C.ar      1 <0>        -0.0950
      7 C7          3.9659    5.2731   -0.3076 C.ar      1 <0>        -0.0280
      8 Cl1         3.5163    6.4787   -1.4730 Cl        1 <0>        -0.0667
      9 N1          3.7261    1.6310    0.1616 N.pl3     1 <0>        -0.4549
     10 C8          2.4776    1.0488    0.1346 C.2       1 <0>         0.1481
     11 N2          2.6535   -0.2270   -0.1205 N.2       1 <0>        -0.2614
     12 N3          3.9065   -0.4817   -0.2478 N.2       1 <0>        -0.3350
     13 C9          4.6105    0.6158   -0.0819 C.2       1 <0>         0.3871
     14 S1          6.3651    0.7550   -0.1646 S.3       1 <0>        -0.7793
     15 C10         1.1847    1.7315    0.3518 C.ar      1 <0>         0.0251
     16 C11         1.1483    2.9835    0.9680 C.ar      1 <0>        -0.1054
     17 C12        -0.0618    3.6128    1.1735 C.ar      1 <0>        -0.1022
     18 C13        -1.2379    3.0101    0.7599 C.ar      1 <0>        -0.0387
     19 C14        -1.2080    1.7683    0.1476 C.ar      1 <0>        -0.1061
     20 C15        -0.0047    1.1266   -0.0581 C.ar      1 <0>        -0.0775
     21 Cl2        -2.7565    3.8114    1.0160 Cl        1 <0>        -0.0785
     22 H1          5.4661    7.1925    2.0674 H         1 <0>         0.0703
     23 H2          4.0158    7.6789    1.1258 H         1 <0>         0.0738
     24 H3          5.5957    7.4692    0.2973 H         1 <0>         0.0749
     25 H4          5.4961    4.9779    2.6866 H         1 <0>         0.1390
     26 H5          4.9684    2.6085    2.2832 H         1 <0>         0.1350
     27 H6          3.1629    3.6527   -1.4489 H         1 <0>         0.1340
     28 H7          2.0652    3.4564    1.2872 H         1 <0>         0.1316
     29 H8         -0.0917    4.5793    1.6545 H         1 <0>         0.1337
     30 H9         -2.1289    1.3013   -0.1690 H         1 <0>         0.1364
     31 H10         0.0174    0.1578   -0.5351 H         1 <0>         0.1440
@<TRIPOS>BOND
     1    1    2 1
     2    1   22 1
     3    1   23 1
     4    1   24 1
     5    2    7 ar
     6    2    3 ar
     7    3    4 ar
     8    3   25 1
     9    4    5 ar
    10    4   26 1
    11    5    6 ar
    12    5    9 1
    13    6    7 ar
    14    6   27 1
    15    7    8 1
    16    9   13 1
    17    9   10 1
    18   10   15 1
    19   10   11 2
    20   11   12 1
    21   12   13 2
    22   13   14 1
    23   15   20 ar
    24   15   16 ar
    25   16   17 ar
    26   16   28 1
    27   17   18 ar
    28   17   29 1
    29   18   19 ar
    30   18   21 1
    31   19   20 ar
    32   19   30 1
    33   20   31 1
@<TRIPOS>MOLECULE
ZINC17074299
   45    48     0     0     0
SMALL
USER_CHARGES

@<TRIPOS>ATOM
      1 C1          2.5393    2.7972    1.9940 C.3       1 <0>        -0.1617
      2 C2          1.4714    1.9691    1.2765 C.3       1 <0>         0.1139
      3 N1          1.4540    0.6118    1.8277 N.pl3     1 <0>        -0.4785
      4 C3          2.1222   -0.4912    1.3440 C.2       1 <0>         0.1287
      5 N2          1.8284   -1.4980    2.1365 N.2       1 <0>        -0.2606
      6 N3          1.0345   -1.1051    3.0676 N.2       1 <0>        -0.3386
      7 C4          0.7773    0.1787    2.9304 C.2       1 <0>         0.3823
      8 S1         -0.2533    1.1551    3.9740 S.3       1 <0>        -0.7954
      9 C5          3.0005   -0.5346    0.1610 C.ar      1 <0>         0.0953
     10 C6          2.6046    0.0141   -1.0550 C.ar      1 <0>        -0.1641
     11 C7          3.4700   -0.0497   -2.1513 C.ar      1 <0>         0.2122
     12 N4          4.6595   -0.6150   -2.0790 N.ar      1 <0>        -0.4691
     13 C8          5.1211   -1.1663   -0.9537 C.ar      1 <0>         0.1372
     14 C9          4.3274   -1.1515    0.2194 C.ar      1 <0>        -0.0839
     15 C10         4.8159   -1.7247    1.3977 C.ar      1 <0>        -0.0708
     16 C11         6.0575   -2.2892    1.4080 C.ar      1 <0>        -0.1265
     17 C12         6.8448   -2.3013    0.2594 C.ar      1 <0>        -0.0966
     18 C13         6.3941   -1.7626   -0.9070 C.ar      1 <0>        -0.1021
     19 C14         3.0349    0.5388   -3.4412 C.ar      1 <0>        -0.0524
     20 C15         1.7683    0.2532   -3.9486 C.ar      1 <0>        -0.0877
     21 C16         1.3688    0.8035   -5.1493 C.ar      1 <0>        -0.1285
     22 C17         2.2229    1.6368   -5.8496 C.ar      1 <0>        -0.0753
     23 C18         3.4807    1.9236   -5.3510 C.ar      1 <0>        -0.1269
     24 C19         3.8886    1.3838   -4.1479 C.ar      1 <0>        -0.0419
     25 C20         5.2568    1.7027   -3.6026 C.3       1 <0>        -0.1068
     26 C21         1.7812    2.2339   -7.1608 C.3       1 <0>        -0.1150
     27 H1          3.5155    2.3342    1.8503 H         1 <0>         0.0501
     28 H2          2.5522    3.8071    1.5839 H         1 <0>         0.0692
     29 H3          2.3108    2.8404    3.0589 H         1 <0>         0.0738
     30 H4          0.4952    2.4321    1.4202 H         1 <0>         0.0995
     31 H5          1.6998    1.9258    0.2116 H         1 <0>         0.0785
     32 H6          1.6373    0.4847   -1.1511 H         1 <0>         0.1373
     33 H7          4.2138   -1.7202    2.2943 H         1 <0>         0.1380
     34 H8          6.4348   -2.7319    2.3180 H         1 <0>         0.1270
     35 H9          7.8250   -2.7534    0.2919 H         1 <0>         0.1275
     36 H10         7.0172   -1.7804   -1.7890 H         1 <0>         0.1336
     37 H11         1.1011   -0.3977   -3.4032 H         1 <0>         0.1262
     38 H12         0.3878    0.5830   -5.5434 H         1 <0>         0.1243
     39 H13         4.1432    2.5748   -5.9018 H         1 <0>         0.1233
     40 H14         5.9561    0.9194   -3.8950 H         1 <0>         0.0795
     41 H15         5.5939    2.6587   -4.0031 H         1 <0>         0.0589
     42 H16         5.2101    1.7605   -2.5151 H         1 <0>         0.0637
     43 H17         1.2912    3.1902   -6.9779 H         1 <0>         0.0708
     44 H18         2.6498    2.3873   -7.8012 H         1 <0>         0.0656
     45 H19         1.0830    1.5560   -7.6519 H         1 <0>         0.0661
@<TRIPOS>BOND
     1    1    2 1
     2    1   27 1
     3    1   28 1
     4    1   29 1
     5    2    3 1
     6    2   30 1
     7    2   31 1
     8    3    7 1
     9    3    4 1
    10    4    5 2
    11    4    9 1
    12    5    6 1
    13    6    7 2
    14    7    8 1
    15    9   14 ar
    16    9   10 ar
    17   10   11 ar
    18   10   32 1
    19   11   12 ar
    20   11   19 1
    21   12   13 ar
    22   13   18 ar
    23   13   14 ar
    24   14   15 ar
    25   15   16 ar
    26   15   33 1
    27   16   17 ar
    28   16   34 1
    29   17   18 ar
    30   17   35 1
    31   18   36 1
    32   19   24 ar
    33   19   20 ar
    34   20   21 ar
    35   20   37 1
    36   21   22 ar
    37   21   38 1
    38   22   23 ar
    39   22   26 1
    40   23   24 ar
    41   23   39 1
    42   24   25 1
    43   25   40 1
    44   25   41 1
    45   25   42 1
    46   26   43 1
    47   26   44 1
    48   26   45 1
@<TRIPOS>MOLECULE
ZINC31156239
   53    54     0     0     0
SMALL
USER_CHARGES

@<TRIPOS>ATOM
      1 C1          0.0609    1.6243   -0.0810 C.3       1 <0>        -0.1219
      2 C2          0.1609    0.1335   -0.2956 C.2       1 <0>        -0.1350
      3 C3         -0.9502   -0.5356   -0.3234 C.2       1 <0>        -0.1059
      4 C4         -0.9843   -2.0292   -0.5321 C.3       1 <0>        -0.0024
      5 C5         -2.2232   -2.4469   -1.3152 C.3       1 <0>        -0.1079
      6 C6         -2.1728   -3.9544   -1.5808 C.3       1 <0>        -0.1193
      7 C7         -0.9505   -4.2915   -2.4249 C.3       1 <0>        -0.1066
      8 C8          0.3505   -3.8561   -1.7466 C.3       1 <0>        -0.0470
      9 C9          0.2797   -2.4203   -1.2805 C.3       1 <0>        -0.0583
     10 H1          0.2938   -1.7926   -2.2078 H         1 <0>         0.0599
     11 C10         1.5006   -1.9804   -0.4739 C.3       1 <0>        -0.1126
     12 C11         1.5316   -0.4476   -0.4565 C.3       1 <0>        -0.0760
     13 C12         0.7055   -4.8260   -0.6200 C.3       1 <0>        -0.1435
     14 C13         1.4659   -3.9651   -2.8144 C.3       1 <0>        -0.1474
     15 C14        -1.0482   -2.6575    0.8611 C.3       1 <0>        -0.1433
     16 C15        -2.2443    0.2053   -0.1310 C.3       1 <0>        -0.0803
     17 C16        -2.8377    0.5585   -1.4963 C.3       1 <0>        -0.0748
     18 C17        -4.1347    1.3011   -1.3035 C.2       1 <0>        -0.1159
     19 C18        -4.1468    2.6335   -1.3087 C.2       1 <0>        -0.2121
     20 C19        -5.3635    3.3576   -0.9246 C.2       1 <0>         0.5066
     21 O1         -6.3527    2.7391   -0.5552 O.co2     1 <0>        -0.6869
     22 O2         -5.3892    4.5801   -0.9736 O.co2     1 <0>        -0.7053
     23 C20        -5.4182    0.5368   -1.1048 C.3       1 <0>        -0.0920
     24 H2          1.0606    2.0588   -0.0782 H         1 <0>         0.0515
     25 H3         -0.5260    2.0685   -0.8850 H         1 <0>         0.0665
     26 H4         -0.4240    1.8221    0.8749 H         1 <0>         0.0654
     27 H5         -3.1233   -2.2253   -0.7385 H         1 <0>         0.0687
     28 H6         -2.2576   -1.9120   -2.2647 H         1 <0>         0.0676
     29 H7         -2.1619   -4.5122   -0.6507 H         1 <0>         0.0641
     30 H8         -3.0749   -4.2389   -2.1378 H         1 <0>         0.0565
     31 H9         -0.9182   -5.3708   -2.5981 H         1 <0>         0.0570
     32 H10        -1.0320   -3.7903   -3.3935 H         1 <0>         0.0584
     33 H11         1.4741   -2.3595    0.5421 H         1 <0>         0.0664
     34 H12         2.4169   -2.3375   -0.9543 H         1 <0>         0.0605
     35 H13         1.9639   -0.0917   -1.3932 H         1 <0>         0.0658
     36 H14         2.1611   -0.1155    0.3707 H         1 <0>         0.0658
     37 H15         0.9396   -5.8033   -1.0422 H         1 <0>         0.0495
     38 H16         1.5710   -4.4488   -0.0752 H         1 <0>         0.0548
     39 H17        -0.1407   -4.9175    0.0608 H         1 <0>         0.0598
     40 H18         1.2293   -3.3126   -3.6549 H         1 <0>         0.0520
     41 H19         2.4180   -3.6638   -2.3774 H         1 <0>         0.0537
     42 H20         1.5360   -4.9955   -3.1629 H         1 <0>         0.0517
     43 H21        -1.8901   -2.2370    1.4110 H         1 <0>         0.0546
     44 H22        -1.1773   -3.7358    0.7677 H         1 <0>         0.0597
     45 H23        -0.1227   -2.4475    1.3972 H         1 <0>         0.0545
     46 H24        -2.9451   -0.4238    0.4179 H         1 <0>         0.0665
     47 H25        -2.0591    1.1199    0.4323 H         1 <0>         0.0722
     48 H26        -2.1369    1.1876   -2.0452 H         1 <0>         0.0575
     49 H27        -3.0229   -0.3561   -2.0596 H         1 <0>         0.0678
     50 H28        -3.2608    3.1804   -1.5957 H         1 <0>         0.0896
     51 H29        -5.6271    0.4483   -0.0386 H         1 <0>         0.0579
     52 H30        -6.2362    1.0671   -1.5925 H         1 <0>         0.0870
     53 H31        -5.3198   -0.4580   -1.5395 H         1 <0>         0.0251
@<TRIPOS>BOND
     1    1    2 1
     2    1   24 1
     3    1   25 1
     4    1   26 1
     5    2   12 1
     6    2    3 2
     7    3    4 1
     8    3   16 1
     9    4    9 1
    10    4    5 1
    11    4   15 1
    12    5    6 1
    13    5   27 1
    14    5   28 1
    15    6    7 1
    16    6   29 1
    17    6   30 1
    18    7    8 1
    19    7   31 1
    20    7   32 1
    21    8    9 1
    22    8   13 1
    23    8   14 1
    24    9   10 1
    25    9   11 1
    26   11   12 1
    27   11   33 1
    28   11   34 1
    29   12   35 1
    30   12   36 1
    31   13   37 1
    32   13   38 1
    33   13   39 1
    34   14   40 1
    35   14   41 1
    36   14   42 1
    37   15   43 1
    38   15   44 1
    39   15   45 1
    40   16   17 1
    41   16   46 1
    42   16   47 1
    43   17   18 1
    44   17   48 1
    45   17   49 1
    46   18   19 2
    47   18   23 1
    48   19   20 1
    49   19   50 1
    50   20   21 2
    51   20   22 1
    52   23   51 1
    53   23   52 1
    54   23   53 1
@<TRIPOS>MOLECULE
ZINC21169693
   38    41     0     0     0
SMALL
USER_CHARGES

@<TRIPOS>ATOM
      1 C1         -0.0187    1.5258    0.0104 C.3       1 <0>        -0.1497
      2 C2          0.0021   -0.0041    0.0020 C.3       1 <0>         0.0582
      3 O1          0.6709   -0.4649   -1.1737 O.3       1 <0>        -0.3240
      4 C3          0.7768   -1.8108   -1.3362 C.ar      1 <0>         0.0941
      5 C4          0.2418   -2.6653   -0.3850 C.ar      1 <0>        -0.2282
      6 C5          0.3439   -4.0405   -0.5413 C.ar      1 <0>        -0.1013
      7 C6          0.9806   -4.5602   -1.6482 C.ar      1 <0>         0.0876
      8 C7          1.5243   -3.7020   -2.6158 C.ar      1 <0>         0.1538
      9 C8          1.4153   -2.3239   -2.4572 C.ar      1 <0>        -0.1492
     10 N1          2.1841   -4.0415   -3.7671 N.2       1 <0>        -0.6617
     11 C9          2.4602   -5.2481   -4.2307 C.2       1 <0>         0.5273
     12 N2          2.1793   -6.4614   -3.7180 N.2       1 <0>        -0.7463
     13 C10         1.5494   -6.7983   -2.6077 C.2       1 <0>         0.5063
     14 N3          0.9929   -5.9722   -1.6467 N.2       1 <0>        -0.6826
     15 C11         1.4222   -8.2341   -2.3609 C.2       1 <0>        -0.0990
     16 C12         1.8768   -9.2984   -3.1294 C.2       1 <0>        -0.1215
     17 C13         1.6041  -10.5501   -2.6339 C.2       1 <0>        -0.1734
     18 C14         0.9293  -10.6633   -1.4624 C.2       1 <0>        -0.2840
     19 S1          0.6501   -9.0750   -0.9917 S.3       1 <0>         0.2189
     20 C15         3.1887   -5.2690   -5.5080 C.2       1 <0>        -0.1061
     21 C16         3.6165   -6.3564   -6.2511 C.2       1 <0>        -0.1177
     22 C17         4.2810   -6.0582   -7.4192 C.2       1 <0>        -0.1748
     23 C18         4.4681   -4.7598   -7.7566 C.2       1 <0>        -0.2795
     24 S2          3.7443   -3.9012   -6.5071 S.3       1 <0>         0.2154
     25 H1          1.0039    1.9031    0.0027 H         1 <0>         0.0627
     26 H2         -0.5459    1.8868   -0.8726 H         1 <0>         0.0627
     27 H3         -0.5289    1.8773    0.9072 H         1 <0>         0.0712
     28 H4          0.5293   -0.3651    0.8851 H         1 <0>         0.0546
     29 H5         -1.0205   -0.3814    0.0098 H         1 <0>         0.0546
     30 H6         -0.2567   -2.2589    0.4826 H         1 <0>         0.1094
     31 H7         -0.0742   -4.7022    0.2028 H         1 <0>         0.1160
     32 H8          1.8282   -1.6573   -3.1999 H         1 <0>         0.1226
     33 H9          2.4101   -9.1511   -4.0569 H         1 <0>         0.1443
     34 H10         1.9223  -11.4321   -3.1698 H         1 <0>         0.1219
     35 H11         0.6412  -11.5681   -0.9477 H         1 <0>         0.1746
     36 H12         3.4403   -7.3738   -5.9342 H         1 <0>         0.1453
     37 H13         4.6482   -6.8483   -8.0574 H         1 <0>         0.1226
     38 H14         4.9654   -4.3665   -8.6309 H         1 <0>         0.1752
@<TRIPOS>BOND
     1    1    2 1
     2    1   25 1
     3    1   26 1
     4    1   27 1
     5    2    3 1
     6    2   28 1
     7    2   29 1
     8    3    4 1
     9    4    9 ar
    10    4    5 ar
    11    5    6 ar
    12    5   30 1
    13    6    7 ar
    14    6   31 1
    15    7   14 1
    16    7    8 ar
    17    8    9 ar
    18    8   10 1
    19    9   32 1
    20   10   11 2
    21   11   12 1
    22   11   20 1
    23   12   13 2
    24   13   14 1
    25   13   15 1
    26   15   19 1
    27   15   16 2
    28   16   17 1
    29   16   33 1
    30   17   18 2
    31   17   34 1
    32   18   19 1
    33   18   35 1
    34   20   24 1
    35   20   21 2
    36   21   22 1
    37   21   36 1
    38   22   23 2
    39   22   37 1
    40   23   24 1
    41   23   38 1
@<TRIPOS>MOLECULE
ZINC05687839
   31    33     0     0     0
SMALL
USER_CHARGES
5-(2,4-dichlorophenyl)-4-(o-tolyl)-1,2,4-triazole-3-thiol
@<TRIPOS>ATOM
      1 C1         -2.5513    3.8825    0.0468 C.3       1 <0>        -0.1174
      2 C2         -1.2387    3.1423    0.0303 C.ar      1 <0>        -0.0615
      3 C3         -0.0491    3.8445    0.0222 C.ar      1 <0>        -0.1157
      4 C4          1.1555    3.1661    0.0075 C.ar      1 <0>        -0.1110
      5 C5          1.1735    1.7832    0.0004 C.ar      1 <0>        -0.1188
      6 C6         -0.0126    1.0758    0.0080 C.ar      1 <0>        -0.0967
      7 C7         -1.2240    1.7544    0.0174 C.ar      1 <0>         0.1509
      8 N1         -2.4296    1.0391    0.0197 N.pl3     1 <0>        -0.4507
      9 C8         -3.1407    0.6084    1.1184 C.2       1 <0>         0.1350
     10 N2         -4.2029   -0.0181    0.6677 N.2       1 <0>        -0.2373
     11 N3         -4.2064   -0.0100   -0.6172 N.2       1 <0>        -0.3371
     12 C9         -3.1496    0.6276   -1.0688 C.2       1 <0>         0.3920
     13 S1         -2.7352    0.8984   -2.7598 S.3       1 <0>        -0.7833
     14 C10        -2.7767    0.8129    2.5360 C.ar      1 <0>         0.0371
     15 C11        -1.6065    1.4983    2.8674 C.ar      1 <0>        -0.1043
     16 C12        -1.2746    1.6902    4.1922 C.ar      1 <0>        -0.0990
     17 C13        -2.0934    1.1951    5.1936 C.ar      1 <0>        -0.0326
     18 C14        -3.2528    0.5102    4.8725 C.ar      1 <0>        -0.1005
     19 C15        -3.5991    0.3161    3.5500 C.ar      1 <0>        -0.0100
     20 Cl1        -5.0533   -0.5428    3.1484 Cl        1 <0>        -0.0193
     21 Cl2        -1.6642    1.4348    6.8585 Cl        1 <0>        -0.0676
     22 H1         -2.3612    4.9659    0.0554 H         1 <0>         0.0673
     23 H2         -3.1188    3.6026    0.9466 H         1 <0>         0.0650
     24 H3         -3.1320    3.6192   -0.8496 H         1 <0>         0.0803
     25 H4         -0.0600    4.9244    0.0277 H         1 <0>         0.1276
     26 H5          2.0843    3.7171    0.0020 H         1 <0>         0.1254
     27 H6          2.1160    1.2560   -0.0114 H         1 <0>         0.1275
     28 H7          0.0021   -0.0041    0.0020 H         1 <0>         0.1242
     29 H8         -0.9645    1.8808    2.0879 H         1 <0>         0.1461
     30 H9         -0.3715    2.2239    4.4494 H         1 <0>         0.1394
     31 H10        -3.8875    0.1269    5.6577 H         1 <0>         0.1452
@<TRIPOS>BOND
     1    1    2 1
     2    1   22 1
     3    1   23 1
     4    1   24 1
     5    2    7 ar
     6    2    3 ar
     7    3    4 ar
     8    3   25 1
     9    4    5 ar
    10    4   26 1
    11    5    6 ar
    12    5   27 1
    13    6    7 ar
    14    6   28 1
    15    7    8 1
    16    8   12 1
    17    8    9 1
    18    9   14 1
    19    9   10 2
    20   10   11 1
    21   11   12 2
    22   12   13 1
    23   14   19 ar
    24   14   15 ar
    25   15   16 ar
    26   15   29 1
    27   16   17 ar
    28   16   30 1
    29   17   18 ar
    30   17   21 1
    31   18   19 ar
    32   18   31 1
    33   19   20 1
@<TRIPOS>MOLECULE
ZINC26469135
   40    41     0     0     0
SMALL
USER_CHARGES
5-[(4-bromo-2-tert-butyl-phenoxy)methyl]-4-ethyl-1,2,4-triazole-3-thiol
@<TRIPOS>ATOM
      1 C1          1.6650    3.2149   -2.9898 C.3       1 <0>        -0.1668
      2 C2          2.0819    1.8227   -2.5116 C.3       1 <0>         0.1151
      3 N1          2.5008    1.8931   -1.1095 N.pl3     1 <0>        -0.4805
      4 C3          3.7614    2.1305   -0.6353 C.2       1 <0>         0.1013
      5 N2          3.6967    2.1093    0.6659 N.2       1 <0>        -0.2688
      6 N3          2.4896    1.8813    1.0440 N.2       1 <0>        -0.3413
      7 C4          1.7138    1.7353   -0.0050 C.2       1 <0>         0.3806
      8 S1         -0.0170    1.4058    0.0098 S.3       1 <0>        -0.8051
      9 C5          4.9966    2.3719   -1.4641 C.3       1 <0>         0.1609
     10 O1          5.1345    3.7715   -1.7171 O.3       1 <0>        -0.2920
     11 C6          6.2055    4.1623   -2.4570 C.ar      1 <0>         0.1603
     12 C7          7.1052    3.2177   -2.9297 C.ar      1 <0>        -0.2051
     13 C8          8.1929    3.6169   -3.6814 C.ar      1 <0>        -0.0536
     14 C9          8.3856    4.9577   -3.9635 C.ar      1 <0>        -0.1305
     15 C10         7.4899    5.9011   -3.4932 C.ar      1 <0>        -0.0557
     16 C11         6.3976    5.5054   -2.7454 C.ar      1 <0>        -0.0956
     17 C12         5.4183    6.5329   -2.2390 C.3       1 <0>        -0.0149
     18 C13         5.8592    7.9255   -2.6941 C.3       1 <0>        -0.1469
     19 C14         4.0267    6.2304   -2.7983 C.3       1 <0>        -0.1460
     20 C15         5.3748    6.4859   -0.7103 C.3       1 <0>        -0.1446
     21 Br1         9.8757    5.5015   -4.9929 Br        1 <0>        -0.0606
     22 H1          1.3505    3.1620   -4.0425 H         1 <0>         0.0668
     23 H2          2.5163    3.9051   -2.8957 H         1 <0>         0.0604
     24 H3          0.8285    3.5785   -2.3750 H         1 <0>         0.0703
     25 H4          1.2306    1.1325   -2.6057 H         1 <0>         0.1006
     26 H5          2.9184    1.4591   -3.1264 H         1 <0>         0.0735
     27 H6          4.9082    1.8336   -2.4193 H         1 <0>         0.0735
     28 H7          5.8805    2.0090   -0.9192 H         1 <0>         0.0918
     29 H8          6.9548    2.1710   -2.7103 H         1 <0>         0.1379
     30 H9          8.8935    2.8821   -4.0495 H         1 <0>         0.1325
     31 H10         7.6419    6.9471   -3.7145 H         1 <0>         0.1409
     32 H11         5.1444    8.6755   -2.3245 H         1 <0>         0.0607
     33 H12         5.8906    7.9592   -3.7931 H         1 <0>         0.0571
     34 H13         6.8597    8.1430   -2.2919 H         1 <0>         0.0576
     35 H14         3.3119    6.9804   -2.4286 H         1 <0>         0.0571
     36 H15         3.7097    5.2292   -2.4710 H         1 <0>         0.0756
     37 H16         4.0579    6.2641   -3.8973 H         1 <0>         0.0505
     38 H17         4.6600    7.2359   -0.3406 H         1 <0>         0.0563
     39 H18         6.3752    6.7034   -0.3082 H         1 <0>         0.0508
     40 H19         5.0578    5.4847   -0.3831 H         1 <0>         0.0762
@<TRIPOS>BOND
     1    1    2 1
     2    1   22 1
     3    1   23 1
     4    1   24 1
     5    2   25 1
     6    2   26 1
     7    2    3 1
     8    3    7 1
     9    3    4 1
    10    4    9 1
    11    4    5 2
    12    5    6 1
    13    6    7 2
    14    7    8 1
    15    9   10 1
    16    9   27 1
    17    9   28 1
    18   10   11 1
    19   11   16 ar
    20   11   12 ar
    21   12   13 ar
    22   12   29 1
    23   13   14 ar
    24   13   30 1
    25   14   15 ar
    26   14   21 1
    27   15   16 ar
    28   15   31 1
    29   16   17 1
    30   17   18 1
    31   17   19 1
    32   17   20 1
    33   18   32 1
    34   18   33 1
    35   18   34 1
    36   19   35 1
    37   19   36 1
    38   19   37 1
    39   20   38 1
    40   20   39 1
    41   20   40 1
@<TRIPOS>MOLECULE
ZINC04818258
   48    51     0     0     0
SMALL
USER_CHARGES

@<TRIPOS>ATOM
      1 C1         -0.4906    1.7496    0.3875 C.3       1 <0>        -0.1480
      2 C2         -0.1458    0.2700    0.2063 C.3       1 <0>        -0.1082
      3 C3         -1.4333   -0.5336    0.0129 C.3       1 <0>         0.0123
      4 C4         -1.0818   -2.0045   -0.1958 C.3       1 <0>        -0.0767
      5 C5         -0.5472   -2.6060    1.0757 C.ar      1 <0>        -0.0456
      6 C6          0.4508   -3.5578    1.0332 C.ar      1 <0>        -0.1237
      7 C7          0.9338   -4.1087    2.2067 C.ar      1 <0>        -0.0958
      8 C8          0.4215   -3.7125    3.4294 C.ar      1 <0>        -0.1325
      9 C9         -0.5768   -2.7603    3.4857 C.ar      1 <0>        -0.0699
     10 C10        -1.0634   -2.2015    2.3076 C.ar      1 <0>        -0.0593
     11 C11        -2.1261   -1.1709    2.3365 C.2       1 <0>         0.2310
     12 C12        -2.3087   -0.3650    1.2222 C.2       1 <0>        -0.2352
     13 C13        -3.3201    0.6038    1.2483 C.2       1 <0>         0.5369
     14 O1         -3.5127    1.3296    0.2862 O.2       1 <0>        -0.5187
     15 N1         -4.0780    0.7174    2.3604 N.am      1 <0>        -0.6166
     16 H1         -4.7852    1.3803    2.3974 H         1 <0>         0.4202
     17 C14        -3.8532   -0.0955    3.4300 C.2       1 <0>         0.3659
     18 N2         -2.9040   -1.0100    3.4118 N.2       1 <0>        -0.5306
     19 S1         -4.8537    0.0791    4.8699 S.3       1 <0>        -0.0043
     20 C15        -4.2098   -1.1793    6.0068 C.3       1 <0>        -0.0507
     21 C16        -4.9887   -1.1370    7.2963 C.ar      1 <0>        -0.0899
     22 C17        -4.5731   -0.3164    8.3282 C.ar      1 <0>        -0.0963
     23 C18        -5.2875   -0.2775    9.5109 C.ar      1 <0>        -0.1197
     24 C19        -6.4178   -1.0589    9.6617 C.ar      1 <0>        -0.1063
     25 C20        -6.8340   -1.8788    8.6294 C.ar      1 <0>        -0.1196
     26 C21        -6.1220   -1.9144    7.4451 C.ar      1 <0>        -0.0962
     27 C22        -2.1723   -0.0126   -1.2213 C.3       1 <0>        -0.1412
     28 H2          0.4267    2.3222    0.5253 H         1 <0>         0.0506
     29 H3         -1.0153    2.1114   -0.4967 H         1 <0>         0.0654
     30 H4         -1.1287    1.8694    1.2631 H         1 <0>         0.0432
     31 H5          0.4923    0.1502   -0.6693 H         1 <0>         0.0691
     32 H6          0.3789   -0.0917    1.0905 H         1 <0>         0.0599
     33 H7         -1.9756   -2.5477   -0.5024 H         1 <0>         0.0820
     34 H8         -0.3264   -2.0862   -0.9774 H         1 <0>         0.0878
     35 H9          0.8552   -3.8732    0.0828 H         1 <0>         0.1290
     36 H10         1.7153   -4.8531    2.1682 H         1 <0>         0.1265
     37 H11         0.8028   -4.1487    4.3408 H         1 <0>         0.1275
     38 H12        -0.9782   -2.4507    4.4394 H         1 <0>         0.1313
     39 H13        -4.3117   -2.1651    5.5531 H         1 <0>         0.1110
     40 H14        -3.1578   -0.9803    6.2111 H         1 <0>         0.1105
     41 H15        -3.6900    0.2941    8.2104 H         1 <0>         0.1270
     42 H16        -4.9623    0.3630   10.3174 H         1 <0>         0.1272
     43 H17        -6.9756   -1.0291   10.5860 H         1 <0>         0.1259
     44 H18        -7.7169   -2.4895    8.7473 H         1 <0>         0.1272
     45 H19        -6.4492   -2.5522    6.6372 H         1 <0>         0.1270
     46 H20        -1.6147   -0.2805   -2.1187 H         1 <0>         0.0485
     47 H21        -3.1662   -0.4580   -1.2646 H         1 <0>         0.0499
     48 H22        -2.2625    1.0719   -1.1598 H         1 <0>         0.0919
@<TRIPOS>BOND
     1    1    2 1
     2    1   28 1
     3    1   29 1
     4    1   30 1
     5    2    3 1
     6    2   31 1
     7    2   32 1
     8    3   12 1
     9    3    4 1
    10    3   27 1
    11    4    5 1
    12    4   33 1
    13    4   34 1
    14    5   10 ar
    15    5    6 ar
    16    6    7 ar
    17    6   35 1
    18    7    8 ar
    19    7   36 1
    20    8    9 ar
    21    8   37 1
    22    9   10 ar
    23    9   38 1
    24   10   11 1
    25   11   18 1
    26   11   12 2
    27   12   13 1
    28   13   14 2
    29   13   15 am
    30   15   16 1
    31   15   17 1
    32   17   18 2
    33   17   19 1
    34   19   20 1
    35   20   21 1
    36   20   39 1
    37   20   40 1
    38   21   26 ar
    39   21   22 ar
    40   22   23 ar
    41   22   41 1
    42   23   24 ar
    43   23   42 1
    44   24   25 ar
    45   24   43 1
    46   25   26 ar
    47   25   44 1
    48   26   45 1
    49   27   46 1
    50   27   47 1
    51   27   48 1
@<TRIPOS>MOLECULE
ZINC02262311
   38    41     0     0     0
SMALL
USER_CHARGES

@<TRIPOS>ATOM
      1 C1          0.1351    1.4157    0.8404 C.ar      1 <0>        -0.1188
      2 C2          0.1494    0.3536   -0.0462 C.ar      1 <0>        -0.1261
      3 C3          1.3219   -0.3331   -0.2857 C.ar      1 <0>        -0.0893
      4 C4          2.4948    0.0460    0.3680 C.ar      1 <0>        -0.0824
      5 C5          2.4738    1.1182    1.2606 C.ar      1 <0>        -0.0894
      6 C6          1.2948    1.7964    1.4918 C.ar      1 <0>        -0.1241
      7 C7          3.7561   -0.6867    0.1160 C.2       1 <0>         0.3583
      8 C8          3.7414   -2.1459   -0.0197 C.2       1 <0>        -0.3713
      9 C9          4.7899   -2.9853   -0.3125 C.2       1 <0>         0.3075
     10 O1          6.0379   -2.4912   -0.5191 O.3       1 <0>        -0.6222
     11 C10         4.5330   -4.4141   -0.3955 C.ar      1 <0>        -0.1251
     12 C11         5.4470   -5.4588   -0.6809 C.ar      1 <0>        -0.0505
     13 C12         5.0333   -6.7524   -0.7197 C.ar      1 <0>        -0.1528
     14 C13         3.7088   -7.0986   -0.4835 C.ar      1 <0>        -0.0995
     15 C14         2.7868   -6.1108   -0.2019 C.ar      1 <0>        -0.1016
     16 C15         3.1927   -4.7927   -0.1587 C.ar      1 <0>        -0.0857
     17 S1          2.3613   -3.2589    0.1631 S.3       1 <0>        -0.0278
     18 N1          4.8926   -0.0266    0.0137 N.2       1 <0>        -0.5189
     19 C16         4.8916    1.3378    0.0147 C.ar      1 <0>         0.1545
     20 C17         4.1570    2.0408   -0.9454 C.ar      1 <0>        -0.1669
     21 C18         4.1610    3.4196   -0.9378 C.ar      1 <0>        -0.0959
     22 C19         4.8899    4.1079    0.0165 C.ar      1 <0>        -0.1697
     23 C20         5.6198    3.4193    0.9697 C.ar      1 <0>        -0.1000
     24 C21         5.6204    2.0404    0.9793 C.ar      1 <0>        -0.1546
     25 H1         -0.7843    1.9526    1.0214 H         1 <0>         0.1166
     26 H2         -0.7591    0.0612   -0.5516 H         1 <0>         0.1202
     27 H3          1.3317   -1.1624   -0.9775 H         1 <0>         0.1317
     28 H4          3.3783    1.4162    1.7699 H         1 <0>         0.1226
     29 H5          1.2771    2.6263    2.1828 H         1 <0>         0.1179
     30 H6          6.4841   -5.2240   -0.8700 H         1 <0>         0.1209
     31 H7          5.7506   -7.5293   -0.9395 H         1 <0>         0.1163
     32 H8          3.4025   -8.1336   -0.5203 H         1 <0>         0.1230
     33 H9          1.7543   -6.3678   -0.0169 H         1 <0>         0.1220
     34 H10         3.5883    1.5051   -1.6910 H         1 <0>         0.1105
     35 H11         3.5942    3.9640   -1.6786 H         1 <0>         0.1102
     36 H12         4.8894    5.1879    0.0171 H         1 <0>         0.1098
     37 H13         6.1864    3.9633    1.7109 H         1 <0>         0.1133
     38 H14         6.1863    1.5044    1.7270 H         1 <0>         0.1176
@<TRIPOS>BOND
     1    1    6 ar
     2    1    2 ar
     3    1   25 1
     4    2    3 ar
     5    2   26 1
     6    3    4 ar
     7    3   27 1
     8    4    5 ar
     9    4    7 1
    10    5    6 ar
    11    5   28 1
    12    6   29 1
    13    7    8 1
    14    7   18 2
    15    8   17 1
    16    8    9 2
    17    9   10 1
    18    9   11 1
    19   11   16 ar
    20   11   12 ar
    21   12   13 ar
    22   12   30 1
    23   13   14 ar
    24   13   31 1
    25   14   15 ar
    26   14   32 1
    27   15   16 ar
    28   15   33 1
    29   16   17 1
    30   18   19 1
    31   19   24 ar
    32   19   20 ar
    33   20   21 ar
    34   20   34 1
    35   21   22 ar
    36   21   35 1
    37   22   23 ar
    38   22   36 1
    39   23   24 ar
    40   23   37 1
    41   24   38 1
@<TRIPOS>MOLECULE
ZINC59500760
   36    39     0     0     0
SMALL
USER_CHARGES

@<TRIPOS>ATOM
      1 C1         -0.0168    1.3896    0.0097 C.ar      1 <0>        -0.1247
      2 C2          1.1621    2.1000    0.0022 C.ar      1 <0>        -0.1247
      3 C3          2.3854    1.4321   -0.0130 C.ar      1 <0>        -0.0888
      4 C4          2.4150    0.0504   -0.0206 C.ar      1 <0>        -0.1242
      5 C5          1.2098   -0.6759   -0.0130 C.ar      1 <0>        -0.1242
      6 C6          0.0021   -0.0041    0.0020 C.ar      1 <0>        -0.0888
      7 C7          1.5665   -2.1187   -0.0241 C.2       1 <0>         0.4321
      8 O1          0.7758   -3.0531   -0.0219 O.3       1 <0>        -0.5470
      9 C8          2.9648   -2.2253   -0.0380 C.2       1 <0>        -0.5434
     10 C9          3.5239   -0.9391   -0.0365 C.2       1 <0>         0.4321
     11 O2          4.7194   -0.6767   -0.0468 O.2       1 <0>        -0.5470
     12 C10         3.7280   -3.4920   -0.0521 C.ar      1 <0>         0.1146
     13 C11         3.6568   -4.3627    1.0375 C.ar      1 <0>        -0.1272
     14 C12         4.3673   -5.5420    1.0234 C.ar      1 <0>        -0.0986
     15 C13         5.1581   -5.8671   -0.0788 C.ar      1 <0>        -0.1094
     16 C14         5.2302   -4.9977   -1.1673 C.ar      1 <0>        -0.0985
     17 C15         4.5158   -3.8208   -1.1573 C.ar      1 <0>        -0.1272
     18 C16         5.9230   -7.1374   -0.0930 C.ar      1 <0>         0.0081
     19 C17         5.8488   -8.0107    0.9910 C.ar      1 <0>        -0.1198
     20 C18         6.5622   -9.1917    0.9724 C.ar      1 <0>        -0.0845
     21 C19         7.3504   -9.5099   -0.1201 C.ar      1 <0>        -0.1081
     22 C20         7.4280   -8.6460   -1.1989 C.ar      1 <0>        -0.0845
     23 C21         6.7142   -7.4651   -1.1930 C.ar      1 <0>        -0.1199
     24 Br1         8.3253  -11.1301   -0.1386 Br        1 <0>        -0.0657
     25 H1         -0.9606    1.9144    0.0260 H         1 <0>         0.1206
     26 H2          1.1391    3.1798    0.0079 H         1 <0>         0.1206
     27 H3          3.3082    1.9932   -0.0191 H         1 <0>         0.1220
     28 H4         -0.9251   -0.5578    0.0075 H         1 <0>         0.1219
     29 H5          3.0448   -4.1110    1.8910 H         1 <0>         0.1151
     30 H6          4.3126   -6.2153    1.8661 H         1 <0>         0.1136
     31 H7          5.8433   -5.2499   -2.0199 H         1 <0>         0.1136
     32 H8          4.5683   -3.1499   -2.0020 H         1 <0>         0.1151
     33 H9          5.2343   -7.7633    1.8440 H         1 <0>         0.1339
     34 H10         6.5057   -9.8689    1.8118 H         1 <0>         0.1296
     35 H11         8.0450   -8.8986   -2.0485 H         1 <0>         0.1296
     36 H12         6.7719   -6.7939   -2.0371 H         1 <0>         0.1339
@<TRIPOS>BOND
     1    1    6 ar
     2    1    2 ar
     3    1   25 1
     4    2    3 ar
     5    2   26 1
     6    3    4 ar
     7    3   27 1
     8    4   10 1
     9    4    5 ar
    10    5    6 ar
    11    5    7 1
    12    6   28 1
    13    7    8 1
    14    7    9 2
    15    9   10 1
    16    9   12 1
    17   10   11 2
    18   12   17 ar
    19   12   13 ar
    20   13   14 ar
    21   13   29 1
    22   14   15 ar
    23   14   30 1
    24   15   16 ar
    25   15   18 1
    26   16   17 ar
    27   16   31 1
    28   17   32 1
    29   18   23 ar
    30   18   19 ar
    31   19   20 ar
    32   19   33 1
    33   20   21 ar
    34   20   34 1
    35   21   22 ar
    36   21   24 1
    37   22   23 ar
    38   22   35 1
    39   23   36 1
@<TRIPOS>MOLECULE
ZINC06748493
   44    47     0     0     0
SMALL
USER_CHARGES

@<TRIPOS>ATOM
      1 C1         -0.0184    1.5028    0.0103 C.3       1 <0>        -0.1052
      2 C2          0.0021   -0.0041    0.0020 C.ar      1 <0>        -0.1027
      3 C3          0.0058   -0.6861   -1.1981 C.ar      1 <0>        -0.1032
      4 C4          0.0257   -2.0684   -1.2075 C.ar      1 <0>        -0.1418
      5 C5          0.0417   -2.7675   -0.0156 C.ar      1 <0>        -0.0955
      6 C6          0.0370   -2.0892    1.1904 C.ar      1 <0>        -0.1279
      7 C7          0.0230   -0.7040    1.2031 C.ar      1 <0>         0.1252
      8 O1          0.0216   -0.0127    2.3686 O.3       1 <0>        -0.2397
      9 C8          0.4221   -0.6080    3.5113 C.ar      1 <0>         0.3630
     10 N1          0.7820    0.1346    4.5549 N.ar      1 <0>        -0.5989
     11 C9          1.1775   -0.4323    5.6857 C.ar      1 <0>         0.3986
     12 N2          1.2317   -1.7495    5.8243 N.ar      1 <0>        -0.6003
     13 C10         0.8867   -2.5517    4.8229 C.ar      1 <0>         0.4619
     14 O2          0.9438   -3.8980    4.9693 O.3       1 <0>        -0.6851
     15 C11         0.4656   -1.9897    3.6223 C.ar      1 <0>        -0.3609
     16 C12         0.0526   -2.8727    2.4754 C.3       1 <0>         0.0088
     17 C13         1.5706    0.4302    6.8266 C.ar      1 <0>        -0.0225
     18 C14         1.5166    1.8176    6.7056 C.ar      1 <0>        -0.0740
     19 C15         1.8835    2.6152    7.7704 C.ar      1 <0>        -0.1334
     20 C16         2.3047    2.0401    8.9559 C.ar      1 <0>        -0.0755
     21 C17         2.3607    0.6637    9.0814 C.ar      1 <0>        -0.1289
     22 C18         1.9898   -0.1438    8.0254 C.ar      1 <0>        -0.0698
     23 C19         2.7046    2.9165   10.1148 C.3       1 <0>        -0.0552
     24 C20         1.8046    2.6165   11.3153 C.3       1 <0>        -0.1437
     25 C21         4.1618    2.6361   10.4872 C.3       1 <0>        -0.1437
     26 H1          1.0042    1.8801    0.0026 H         1 <0>         0.0677
     27 H2         -0.5455    1.8639   -0.8728 H         1 <0>         0.0634
     28 H3         -0.5286    1.8543    0.9071 H         1 <0>         0.0723
     29 H4         -0.0073   -0.1399   -2.1297 H         1 <0>         0.1271
     30 H5          0.0285   -2.6021   -2.1465 H         1 <0>         0.1228
     31 H6          0.0576   -3.8473   -0.0254 H         1 <0>         0.1261
     32 H7         -0.9407   -3.2820    2.6599 H         1 <0>         0.0713
     33 H8          0.7662   -3.6921    2.3891 H         1 <0>         0.0810
     34 H9          1.1886    2.2677    5.7803 H         1 <0>         0.1350
     35 H10         1.8421    3.6905    7.6778 H         1 <0>         0.1188
     36 H11         2.6910    0.2201   10.0091 H         1 <0>         0.1196
     37 H12         2.0290   -1.2184    8.1262 H         1 <0>         0.1380
     38 H13         2.5968    3.9638    9.8326 H         1 <0>         0.0744
     39 H14         1.9125    1.5693   11.5975 H         1 <0>         0.0575
     40 H15         2.0938    3.2504   12.1535 H         1 <0>         0.0535
     41 H16         0.7665    2.8163   11.0500 H         1 <0>         0.0556
     42 H17         4.8030    2.8497    9.6320 H         1 <0>         0.0556
     43 H18         4.4510    3.2699   11.3255 H         1 <0>         0.0535
     44 H19         4.2697    1.5888   10.7695 H         1 <0>         0.0575
@<TRIPOS>BOND
     1    1    2 1
     2    1   26 1
     3    1   27 1
     4    1   28 1
     5    2    7 ar
     6    2    3 ar
     7    3    4 ar
     8    3   29 1
     9    4    5 ar
    10    4   30 1
    11    5    6 ar
    12    5   31 1
    13    6   16 1
    14    6    7 ar
    15    7    8 1
    16    8    9 1
    17    9   10 ar
    18    9   15 ar
    19   10   11 ar
    20   11   12 ar
    21   11   17 1
    22   12   13 ar
    23   13   15 ar
    24   13   14 1
    25   15   16 1
    26   16   32 1
    27   16   33 1
    28   17   22 ar
    29   17   18 ar
    30   18   19 ar
    31   18   34 1
    32   19   20 ar
    33   19   35 1
    34   20   21 ar
    35   20   23 1
    36   21   22 ar
    37   21   36 1
    38   22   37 1
    39   23   24 1
    40   23   25 1
    41   23   38 1
    42   24   39 1
    43   24   40 1
    44   24   41 1
    45   25   42 1
    46   25   43 1
    47   25   44 1
@<TRIPOS>MOLECULE
ZINC15346881
   33    35     0     0     0
SMALL
USER_CHARGES
3-[(5Z)-5-[(5-methyl-2-thienyl)methylene]-4-oxo-2-thioxo-thiazolidin-3-yl]benzoic acid
@<TRIPOS>ATOM
      1 C1         -0.3282   13.3606    0.0707 C.3       1 <0>        -0.0774
      2 C2         -1.1016   12.0690    0.0013 C.2       1 <0>        -0.1478
      3 C3         -2.4452   11.8952   -0.1031 C.2       1 <0>        -0.1868
      4 C4         -2.9548   10.6216   -0.1578 C.2       1 <0>        -0.0762
      5 C5         -2.0428    9.5740   -0.0894 C.2       1 <0>        -0.2103
      6 S1         -0.4918   10.4467    0.0362 S.3       1 <0>         0.1689
      7 C6         -2.2819    8.1805   -0.1180 C.2       1 <0>         0.1370
      8 C7         -1.2369    7.3078   -0.0436 C.2       1 <0>        -0.2487
      9 C8         -1.2433    5.8801   -0.0546 C.2       1 <0>         0.5415
     10 O1         -2.2870    5.2583   -0.1407 O.2       1 <0>        -0.4480
     11 N1         -0.0828    5.2535    0.0312 N.am      1 <0>        -0.4694
     12 C9          1.0748    5.9438    0.1319 C.2       1 <0>         0.2847
     13 S2          2.6734    5.3449    0.2605 S.2       1 <0>        -0.3024
     14 S3          0.5141    7.6396    0.0951 S.3       1 <0>         0.0420
     15 C10        -0.0525    3.8523    0.0233 C.ar      1 <0>         0.0657
     16 C11         0.0584    3.1665   -1.1803 C.ar      1 <0>        -0.0889
     17 C12         0.0949    1.7848   -1.1934 C.ar      1 <0>        -0.1271
     18 C13         0.0090    1.0764   -0.0122 C.ar      1 <0>        -0.0531
     19 C14        -0.1031    1.7559    1.2025 C.ar      1 <0>        -0.1015
     20 C15        -0.1336    3.1510    1.2156 C.ar      1 <0>        -0.0481
     21 C16        -0.1886    1.0006    2.4693 C.2       1 <0>         0.4920
     22 O2         -0.2861    1.5939    3.5248 O.co2     1 <0>        -0.6265
     23 H1          0.7367   13.1425    0.1507 H         1 <0>         0.0769
     24 H2         -0.5129   13.9436   -0.8316 H         1 <0>         0.0855
     25 H3         -0.6491   13.9298    0.9431 H         1 <0>         0.0858
     26 H4         -3.1045   12.7495   -0.1478 H         1 <0>         0.1396
     27 H5         -4.0160   10.4415   -0.2468 H         1 <0>         0.1481
     28 H6         -3.2922    7.8075   -0.1987 H         1 <0>         0.1749
     29 H7          0.1211    3.7153   -2.1084 H         1 <0>         0.1177
     30 H8          0.1861    1.2577   -2.1316 H         1 <0>         0.1298
     31 H9          0.0330   -0.0032   -0.0268 H         1 <0>         0.1407
     32 H10        -0.2206    3.6823    2.1518 H         1 <0>         0.1291
     33 O3         -0.1584   -0.3461    2.4540 O.co2     1 <0>        -0.7476
@<TRIPOS>BOND
     1    1    2 1
     2    1   23 1
     3    1   24 1
     4    1   25 1
     5    2    6 1
     6    2    3 2
     7    3    4 1
     8    3   26 1
     9    4    5 2
    10    4   27 1
    11    5    6 1
    12    5    7 1
    13    7    8 2
    14    7   28 1
    15    8   14 1
    16    8    9 1
    17    9   10 2
    18    9   11 am
    19   11   12 1
    20   11   15 1
    21   12   13 2
    22   12   14 1
    23   15   20 ar
    24   15   16 ar
    25   16   17 ar
    26   16   29 1
    27   17   18 ar
    28   17   30 1
    29   18   19 ar
    30   18   31 1
    31   19   20 ar
    32   19   21 1
    33   20   32 1
    34   21   22 2
    35   21   33 1
@<TRIPOS>MOLECULE
ZINC31667784
   27    28     0     0     0
SMALL
USER_CHARGES
5-chloro-2-cyano-N-(3,5-difluorophenyl)benzenesulfonamide
@<TRIPOS>ATOM
      1 C1         -5.2873    4.9365    0.7055 C.ar      1 <0>        -0.0790
      2 C2         -4.4445    3.9250    0.2948 C.ar      1 <0>        -0.0856
      3 C3         -3.1842    4.2362   -0.2200 C.ar      1 <0>         0.0788
      4 C4         -2.7806    5.5708   -0.3041 C.ar      1 <0>        -0.6081
      5 C5         -3.6321    6.5728    0.1106 C.ar      1 <0>        -0.0233
      6 C6         -4.8834    6.2580    0.6146 C.ar      1 <0>        -0.0350
      7 Cl1        -5.9499    7.5255    1.1341 Cl        1 <0>        -0.0641
      8 S1         -1.1896    5.9733   -0.9454 S.o2      1 <0>         2.5779
      9 O1         -1.0648    7.3865   -0.8647 O.2       1 <0>        -1.0237
     10 O2         -1.0544    5.2653   -2.1700 O.2       1 <0>        -0.9767
     11 N1         -0.0677    5.3390    0.0945 N.2       1 <0>        -1.0490
     12 C7         -0.0258    5.7679    1.4230 C.ar      1 <0>         0.2774
     13 C8          0.0726    4.8391    2.4509 C.ar      1 <0>        -0.2004
     14 C9          0.1135    5.2661    3.7660 C.ar      1 <0>         0.1398
     15 C10         0.0564    6.6186    4.0580 C.ar      1 <0>        -0.2593
     16 C11        -0.0475    7.5461    3.0350 C.ar      1 <0>         0.1479
     17 C12        -0.0830    7.1238    1.7181 C.ar      1 <0>        -0.2578
     18 F1         -0.1086    8.8646    3.3230 F         1 <0>        -0.1449
     19 F2          0.2087    4.3631    4.7663 F         1 <0>        -0.1463
     20 C13        -2.3070    3.1911   -0.6545 C.1       1 <0>         0.2297
     21 N2         -1.6111    2.3620   -0.9991 N.1       1 <0>        -0.3632
     22 H1         -6.2642    4.6975    1.0990 H         1 <0>         0.1449
     23 H2         -4.7605    2.8948    0.3664 H         1 <0>         0.1456
     24 H3         -3.3229    7.6054    0.0420 H         1 <0>         0.1565
     25 H4          0.1175    3.7842    2.2236 H         1 <0>         0.1305
     26 H5          0.0884    6.9502    5.0853 H         1 <0>         0.1297
     27 H6         -0.1595    7.8478    0.9204 H         1 <0>         0.1576
@<TRIPOS>BOND
     1    1    6 ar
     2    1    2 ar
     3    1   22 1
     4    2    3 ar
     5    2   23 1
     6    3    4 ar
     7    3   20 1
     8    4    5 ar
     9    4    8 1
    10    5    6 ar
    11    5   24 1
    12    6    7 1
    13    8    9 2
    14    8   10 2
    15    8   11 1
    16   11   12 1
    17   12   17 ar
    18   12   13 ar
    19   13   14 ar
    20   13   25 1
    21   14   15 ar
    22   14   19 1
    23   15   16 ar
    24   15   26 1
    25   16   17 ar
    26   16   18 1
    27   17   27 1
    28   20   21 3
@<TRIPOS>MOLECULE
ZINC37437494
   22    23     0     0     0
SMALL
USER_CHARGES

@<TRIPOS>ATOM
      1 C1         -0.0167    1.3782    0.0096 C.ar      1 <0>        -0.0093
      2 C2          1.1706    2.0858    0.0021 C.ar      1 <0>        -0.1359
      3 C3          2.3780    1.4104   -0.0130 C.ar      1 <0>         0.0047
      4 C4          2.3961    0.0270   -0.0206 C.ar      1 <0>        -0.1359
      5 C5          1.2082   -0.6795   -0.0130 C.ar      1 <0>        -0.0092
      6 C6          0.0021   -0.0041    0.0020 C.ar      1 <0>        -0.6237
      7 S1         -1.5119   -0.9054    0.0122 S.o2      1 <0>         2.6364
      8 O1         -1.2185   -2.1862    0.5533 O.2       1 <0>        -1.0034
      9 O2         -2.4924   -0.0460    0.5773 O.2       1 <0>        -1.0033
     10 N1         -1.9483   -1.1474   -1.5669 N.2       1 <0>        -1.0228
     11 C7         -3.1131   -1.8374   -1.8663 C.2       1 <0>         0.4037
     12 N2         -3.9891   -2.3614   -1.0363 N.2       1 <0>        -0.6571
     13 C8         -5.0596   -2.9947   -1.4844 C.2       1 <0>         0.1552
     14 C9         -5.2085   -3.0766   -2.8290 C.2       1 <0>        -0.3325
     15 S2         -3.7531   -2.2013   -3.3797 S.3       1 <0>         0.0791
     16 Br1        -6.5834   -3.8878   -3.8426 Br        1 <0>        -0.0037
     17 Cl1         3.8696    2.2984   -0.0231 Cl        1 <0>        -0.0716
     18 H1         -0.9592    1.9053    0.0259 H         1 <0>         0.1481
     19 H2          1.1558    3.1656    0.0076 H         1 <0>         0.1393
     20 H3          3.3383   -0.5007   -0.0327 H         1 <0>         0.1393
     21 H4          1.2222   -1.7594   -0.0193 H         1 <0>         0.1480
     22 H5         -5.7828   -3.4277   -0.8093 H         1 <0>         0.1546
@<TRIPOS>BOND
     1    1    6 ar
     2    1    2 ar
     3    1   18 1
     4    2    3 ar
     5    2   19 1
     6    3    4 ar
     7    3   17 1
     8    4    5 ar
     9    4   20 1
    10    5    6 ar
    11    5   21 1
    12    6    7 1
    13    7    8 2
    14    7    9 2
    15    7   10 1
    16   10   11 1
    17   11   15 1
    18   11   12 2
    19   12   13 1
    20   13   14 2
    21   13   22 1
    22   14   15 1
    23   14   16 1
@<TRIPOS>MOLECULE
ZINC44809710
   44    46     0     0     0
SMALL
USER_CHARGES

@<TRIPOS>ATOM
      1 C1         -0.7283    0.0055    0.3787 C.ar      1 <0>        -0.1311
      2 C2          0.3563    0.6471   -0.1895 C.ar      1 <0>        -0.1218
      3 C3          1.5912    0.0264   -0.2148 C.ar      1 <0>        -0.1081
      4 C4          1.7415   -1.2358    0.3285 C.ar      1 <0>        -0.0474
      5 C5          0.6571   -1.8771    0.8975 C.ar      1 <0>        -0.1081
      6 C6         -0.5781   -1.2569    0.9215 C.ar      1 <0>        -0.1218
      7 C7          3.0876   -1.9129    0.3001 C.3       1 <0>        -0.0804
      8 S1          4.0104   -1.4873    1.8027 S.3       1 <0>        -0.1115
      9 C8          5.5394   -2.3439    1.6209 C.2       1 <0>        -0.5196
     10 H1          5.7200   -2.9460    0.7426 H         1 <0>         0.0761
     11 C9          6.4708   -2.2491    2.5648 C.2       1 <0>         0.4768
     12 O1          6.2847   -1.4145    3.6222 O.3       1 <0>        -0.7386
     13 N1          7.6426   -3.0082    2.4702 N.pl3     1 <0>        -0.6520
     14 C10         8.2182   -3.3351    1.1581 C.3       1 <0>         0.1268
     15 C11         9.6751   -2.8567    1.1291 C.3       1 <0>         0.1035
     16 N2         10.3525   -3.3408    2.3402 N.pl3     1 <0>        -0.6193
     17 C12         9.7769   -3.0139    3.6523 C.3       1 <0>         0.1045
     18 C13         8.3231   -3.4875    3.6814 C.3       1 <0>         0.1279
     19 C14        11.5221   -4.0984    2.2458 C.ar      1 <0>         0.2306
     20 C15        12.1247   -4.2977    1.0101 C.ar      1 <0>        -0.2086
     21 C16        13.2813   -5.0469    0.9204 C.ar      1 <0>        -0.0706
     22 C17        13.8395   -5.5988    2.0588 C.ar      1 <0>        -0.1955
     23 C18        13.2423   -5.4025    3.2905 C.ar      1 <0>        -0.0702
     24 C19        12.0886   -4.6495    3.3881 C.ar      1 <0>        -0.2075
     25 H2         -1.6921    0.4923    0.4025 H         1 <0>         0.1164
     26 H3          0.2388    1.6332   -0.6139 H         1 <0>         0.1184
     27 H4          2.4384    0.5274   -0.6593 H         1 <0>         0.1219
     28 H5          0.7745   -2.8633    1.3217 H         1 <0>         0.1220
     29 H6         -1.4254   -1.7581    1.3657 H         1 <0>         0.1185
     30 H7          2.9499   -2.9931    0.2520 H         1 <0>         0.0722
     31 H8          3.6442   -1.5782   -0.5752 H         1 <0>         0.0718
     32 H9          8.1840   -4.4133    1.0020 H         1 <0>         0.0414
     33 H10         7.6521   -2.8314    0.3746 H         1 <0>         0.0823
     34 H11        10.1740   -3.2566    0.2463 H         1 <0>         0.0810
     35 H12         9.7021   -1.7673    1.1056 H         1 <0>         0.0626
     36 H13        10.3430   -3.5176    4.4358 H         1 <0>         0.0802
     37 H14         9.8111   -1.9357    3.8084 H         1 <0>         0.0648
     38 H15         7.8263   -3.0845    4.5639 H         1 <0>         0.0882
     39 H16         8.2965   -4.5769    3.7091 H         1 <0>         0.0388
     40 H17        11.6889   -3.8674    0.1205 H         1 <0>         0.1202
     41 H18        13.7503   -5.2021   -0.0400 H         1 <0>         0.1154
     42 H19        14.7437   -6.1849    1.9858 H         1 <0>         0.1120
     43 H20        13.6808   -5.8350    4.1777 H         1 <0>         0.1158
     44 H21        11.6252   -4.4928    4.3510 H         1 <0>         0.1217
@<TRIPOS>BOND
     1    1    6 ar
     2    1    2 ar
     3    1   25 1
     4    2    3 ar
     5    2   26 1
     6    3    4 ar
     7    3   27 1
     8    4    5 ar
     9    4    7 1
    10    5    6 ar
    11    5   28 1
    12    6   29 1
    13    7    8 1
    14    7   30 1
    15    7   31 1
    16    8    9 1
    17    9   10 1
    18    9   11 2
    19   11   12 1
    20   11   13 1
    21   13   18 1
    22   13   14 1
    23   14   15 1
    24   14   32 1
    25   14   33 1
    26   15   16 1
    27   15   34 1
    28   15   35 1
    29   16   17 1
    30   16   19 1
    31   17   18 1
    32   17   36 1
    33   17   37 1
    34   18   38 1
    35   18   39 1
    36   19   24 ar
    37   19   20 ar
    38   20   21 ar
    39   20   40 1
    40   21   22 ar
    41   21   41 1
    42   22   23 ar
    43   22   42 1
    44   23   24 ar
    45   23   43 1
    46   24   44 1
@<TRIPOS>MOLECULE
ZINC62869931
   38    39     0     0     0
SMALL
USER_CHARGES

@<TRIPOS>ATOM
      1 C1         -0.0099    1.5318    0.0052 C.3       1 <0>        -0.1627
      2 C2          0.0130    0.0020   -0.0013 C.3       1 <0>        -0.0861
      3 C3         -1.4216   -0.5296    0.0147 C.3       1 <0>        -0.1391
      4 C4         -1.3994   -2.0598    0.0041 C.3       1 <0>        -0.0871
      5 C5         -0.6572   -2.5524   -1.2403 C.3       1 <0>        -0.1400
      6 C6         -1.3947   -2.0708   -2.4938 C.3       1 <0>         0.1045
      7 N1         -1.5481   -0.6114   -2.4208 N.am      1 <0>        -0.5969
      8 C7         -2.1677   -0.0252   -1.2245 C.3       1 <0>         0.1357
      9 C8         -1.1280    0.1746   -3.4318 C.2       1 <0>         0.5435
     10 O1         -1.3446    1.3728   -3.4021 O.2       1 <0>        -0.5463
     11 C9         -0.4360   -0.3917   -4.5269 C.2       1 <0>        -0.1959
     12 C10         0.0800    0.4111   -5.4923 C.2       1 <0>         0.0104
     13 C11         0.7723   -0.1555   -6.5879 C.2       1 <0>        -0.1546
     14 C12         1.3751    0.4809   -7.6679 C.2       1 <0>        -0.1174
     15 C13         1.9778   -0.3451   -8.5845 C.2       1 <0>        -0.1553
     16 C14         1.9472   -1.6881   -8.3833 C.2       1 <0>        -0.1898
     17 S1          1.1065   -1.8707   -6.9403 S.3       1 <0>         0.2360
     18 Cl1         2.6284   -2.9318   -9.3847 Cl        1 <0>         0.0125
     19 C15        -2.1239   -0.0447    1.2568 C.2       1 <0>         0.5062
     20 O2         -2.2510    1.1512    1.4576 O.co2     1 <0>        -0.6842
     21 O3         -2.5649   -0.8481    2.0608 O.co2     1 <0>        -0.6944
     22 H1          1.0122    1.9105   -0.0062 H         1 <0>         0.0256
     23 H2         -0.5403    1.8910   -0.8767 H         1 <0>         0.0518
     24 H3         -0.5178    1.8837    0.9031 H         1 <0>         0.0945
     25 H4          0.5209   -0.3500   -0.8992 H         1 <0>         0.0426
     26 H5          0.5435   -0.3572    0.8806 H         1 <0>         0.0469
     27 H6         -0.8905   -2.4218    0.8975 H         1 <0>         0.0634
     28 H7         -2.4217   -2.4377   -0.0094 H         1 <0>         0.0599
     29 H8          0.3576   -2.1546   -1.2399 H         1 <0>         0.0664
     30 H9         -0.6215   -3.6418   -1.2352 H         1 <0>         0.0674
     31 H10        -0.8180   -2.3337   -3.3806 H         1 <0>         0.0780
     32 H11        -2.3775   -2.5396   -2.5422 H         1 <0>         0.0688
     33 H12        -3.2136   -0.3271   -1.1694 H         1 <0>         0.0579
     34 H13        -2.1011    1.0617   -1.2738 H         1 <0>         0.1017
     35 H14        -0.3179   -1.4630   -4.5954 H         1 <0>         0.1275
     36 H15        -0.0382    1.4825   -5.4238 H         1 <0>         0.1548
     37 H16         1.3691    1.5552   -7.7786 H         1 <0>         0.1530
     38 H17         2.4690    0.0673   -9.4535 H         1 <0>         0.1410
@<TRIPOS>BOND
     1    1    2 1
     2    1   22 1
     3    1   23 1
     4    1   24 1
     5    2    3 1
     6    2   25 1
     7    2   26 1
     8    3    8 1
     9    3    4 1
    10    3   19 1
    11    4    5 1
    12    4   27 1
    13    4   28 1
    14    5    6 1
    15    5   29 1
    16    5   30 1
    17    6    7 1
    18    6   31 1
    19    6   32 1
    20    7    8 1
    21    7    9 am
    22    8   33 1
    23    8   34 1
    24    9   10 2
    25    9   11 1
    26   11   12 2
    27   11   35 1
    28   12   13 1
    29   12   36 1
    30   13   17 1
    31   13   14 2
    32   14   15 1
    33   14   37 1
    34   15   16 2
    35   15   38 1
    36   16   17 1
    37   16   18 1
    38   19   20 2
    39   19   21 1
@<TRIPOS>MOLECULE
ZINC01438709
   38    41     0     0     0
SMALL
USER_CHARGES
5-(4-methoxyphenyl)-4-(1-naphthyl)-2H-1,2,4-triazole-3-thione
@<TRIPOS>ATOM
      1 C1          0.7969    5.1203   -6.6508 C.3       1 <0>         0.0239
      2 O1         -0.5558    5.5113   -6.4077 O.3       1 <0>        -0.3182
      3 C2         -0.9156    5.7163   -5.1137 C.ar      1 <0>         0.1244
      4 C3         -2.2154    6.0979   -4.8083 C.ar      1 <0>        -0.1500
      5 C4         -2.5841    6.3067   -3.4966 C.ar      1 <0>        -0.0458
      6 C5         -1.6492    6.1341   -2.4749 C.ar      1 <0>        -0.0323
      7 C6         -0.3423    5.7561   -2.7862 C.ar      1 <0>        -0.0781
      8 C7          0.0176    5.5440   -4.0999 C.ar      1 <0>        -0.2021
      9 C8         -2.0408    6.3572   -1.0661 C.2       1 <0>         0.2127
     10 N1         -3.1187    6.9703   -0.6630 N.2       1 <0>        -0.3061
     11 N2         -3.1196    6.9705    0.7385 N.2       1 <0>        -0.3772
     12 C9         -2.0048    6.3300    1.1460 C.2       1 <0>         0.3982
     13 S1         -1.5346    6.0528    2.7687 S.3       1 <0>        -0.7600
     14 N3         -1.3260    5.9502    0.0451 N.pl3     1 <0>        -0.4676
     15 C10        -0.1114    5.2587    0.0297 C.ar      1 <0>         0.1767
     16 C11         1.0815    5.9488    0.0219 C.ar      1 <0>        -0.1074
     17 C12         2.2962    5.2700    0.0065 C.ar      1 <0>        -0.1048
     18 C13         2.3410    3.9091   -0.0004 C.ar      1 <0>        -0.1069
     19 C14         1.1472    3.1679    0.0076 C.ar      1 <0>        -0.0423
     20 C15        -0.0956    3.8479    0.0228 C.ar      1 <0>        -0.0349
     21 C16        -1.2873    3.1062    0.0301 C.ar      1 <0>        -0.0781
     22 C17        -1.2345    1.7457    0.0174 C.ar      1 <0>        -0.1213
     23 C18        -0.0126    1.0758    0.0080 C.ar      1 <0>        -0.1109
     24 C19         1.1626    1.7623    0.0004 C.ar      1 <0>        -0.1128
     25 H1          0.9520    4.9890   -7.7319 H         1 <0>         0.0988
     26 H2          1.0032    4.1720   -6.1329 H         1 <0>         0.0558
     27 H3          1.4768    5.8989   -6.2748 H         1 <0>         0.0557
     28 H4         -2.9384    6.2309   -5.5995 H         1 <0>         0.1339
     29 H5         -3.5951    6.6038   -3.2599 H         1 <0>         0.1414
     30 H6          0.3851    5.6260   -1.9985 H         1 <0>         0.1347
     31 H7          1.0276    5.2472   -4.3412 H         1 <0>         0.1285
     32 H8          1.0734    7.0288    0.0275 H         1 <0>         0.1259
     33 H9          3.2186    5.8318    0.0003 H         1 <0>         0.1287
     34 H10         3.2932    3.3997   -0.0116 H         1 <0>         0.1290
     35 H11        -2.2414    3.6121    0.0416 H         1 <0>         0.1193
     36 H12        -2.1529    1.1774    0.0187 H         1 <0>         0.1212
     37 H13         0.0021   -0.0041    0.0020 H         1 <0>         0.1212
     38 H14         2.1022    1.2298   -0.0107 H         1 <0>         0.1266
@<TRIPOS>BOND
     1    1    2 1
     2    1   25 1
     3    1   26 1
     4    1   27 1
     5    2    3 1
     6    3    8 ar
     7    3    4 ar
     8    4    5 ar
     9    4   28 1
    10    5    6 ar
    11    5   29 1
    12    6    7 ar
    13    6    9 1
    14    7    8 ar
    15    7   30 1
    16    8   31 1
    17    9   14 1
    18    9   10 2
    19   10   11 1
    20   11   12 2
    21   12   13 1
    22   12   14 1
    23   14   15 1
    24   15   20 ar
    25   15   16 ar
    26   16   17 ar
    27   16   32 1
    28   17   18 ar
    29   17   33 1
    30   18   19 ar
    31   18   34 1
    32   19   24 ar
    33   19   20 ar
    34   20   21 ar
    35   21   22 ar
    36   21   35 1
    37   22   23 ar
    38   22   36 1
    39   23   24 ar
    40   23   37 1
    41   24   38 1
@<TRIPOS>MOLECULE
ZINC32811926
   38    41     0     0     0
SMALL
USER_CHARGES
(E)-2-(4-oxo-5,6,7,8-tetrahydro-3H-benzothiopheno[2,3-d]pyrimidin-2-yl)-3-phenyl-prop-2-enenitrile
@<TRIPOS>ATOM
      1 C1         -2.7036   10.9875   -7.9966 C.ar      1 <0>        -0.1138
      2 C2         -3.1459   11.2622   -6.7138 C.ar      1 <0>        -0.1255
      3 C3         -2.9764   10.3346   -5.7086 C.ar      1 <0>        -0.0929
      4 C4         -2.3542    9.1114   -5.9879 C.ar      1 <0>        -0.0736
      5 C5         -1.9046    8.8441   -7.2871 C.ar      1 <0>        -0.1028
      6 C6         -2.0879    9.7807   -8.2816 C.ar      1 <0>        -0.1189
      7 C7         -2.1688    8.1177   -4.9239 C.2       1 <0>        -0.0068
      8 C8         -2.1485    6.7871   -5.2286 C.2       1 <0>         0.0151
      9 C9         -2.4525    6.3523   -6.5587 C.1       1 <0>         0.2803
     10 N1         -2.6936    6.0075   -7.6139 N.1       1 <0>        -0.4279
     11 C10        -1.8141    5.7990   -4.1895 C.ar      1 <0>         0.3975
     12 N2         -1.8014    4.4747   -4.5243 N.ar      1 <0>        -0.6527
     13 C11        -1.5065    3.4946   -3.6380 C.ar      1 <0>         0.5365
     14 O1         -1.4995    2.3173   -3.9536 O.3       1 <0>        -0.5822
     15 C12        -1.2017    3.9278   -2.3038 C.ar      1 <0>        -0.3376
     16 C13        -0.8556    3.0825   -1.1757 C.2       1 <0>        -0.0191
     17 C14        -0.6057    3.7088   -0.0010 C.2       1 <0>        -0.2273
     18 S1         -0.8170    5.4380   -0.3416 S.3       1 <0>         0.0288
     19 C15        -1.2396    5.3193   -2.0512 C.ar      1 <0>         0.1543
     20 N3         -1.5368    6.2310   -2.9658 N.ar      1 <0>        -0.5560
     21 C16        -0.2326    3.0748    1.3034 C.3       1 <0>        -0.0222
     22 C17        -0.5352    1.5718    1.2162 C.3       1 <0>        -0.1116
     23 C18         0.0428    1.0317   -0.0952 C.3       1 <0>        -0.1182
     24 C19        -0.7699    1.5617   -1.2765 C.3       1 <0>        -0.0584
     25 H1         -2.8400   11.7187   -8.7796 H         1 <0>         0.1208
     26 H2         -3.6255   12.2060   -6.5002 H         1 <0>         0.1239
     27 H3         -3.3226   10.5502   -4.7086 H         1 <0>         0.1310
     28 H4         -1.4201    7.9050   -7.5102 H         1 <0>         0.1270
     29 H5         -1.7462    9.5744   -9.2851 H         1 <0>         0.1226
     30 H6         -2.0462    8.4450   -3.8809 H         1 <0>         0.1684
     31 H7          0.8392    3.2323    1.4943 H         1 <0>         0.0688
     32 H8         -0.8203    3.5305    2.1140 H         1 <0>         0.0686
     33 H9         -0.0731    1.0546    2.0700 H         1 <0>         0.0640
     34 H10        -1.6238    1.4150    1.2381 H         1 <0>         0.0643
     35 H11         1.0882    1.3584   -0.1972 H         1 <0>         0.0613
     36 H12         0.0011   -0.0675   -0.0891 H         1 <0>         0.0611
     37 H13        -1.7834    1.1349   -1.2517 H         1 <0>         0.0694
     38 H14        -0.2781    1.2839   -2.2204 H         1 <0>         0.0842
@<TRIPOS>BOND
     1    1    6 ar
     2    1    2 ar
     3    1   25 1
     4    2    3 ar
     5    2   26 1
     6    3    4 ar
     7    3   27 1
     8    4    5 ar
     9    4    7 1
    10    5    6 ar
    11    5   28 1
    12    6   29 1
    13    7    8 2
    14    7   30 1
    15    8    9 1
    16    8   11 1
    17    9   10 3
    18   11   20 ar
    19   11   12 ar
    20   12   13 ar
    21   13   14 1
    22   13   15 ar
    23   15   19 ar
    24   15   16 1
    25   16   24 1
    26   16   17 2
    27   17   18 1
    28   17   21 1
    29   18   19 1
    30   19   20 ar
    31   21   22 1
    32   21   31 1
    33   21   32 1
    34   22   23 1
    35   22   33 1
    36   22   34 1
    37   23   24 1
    38   23   35 1
    39   23   36 1
    40   24   37 1
    41   24   38 1
@<TRIPOS>MOLECULE
ZINC37681753
   32    33     0     0     0
SMALL
USER_CHARGES

@<TRIPOS>ATOM
      1 C1         -0.0157    1.3071    0.0092 C.2       1 <0>        -0.1173
      2 C2          0.0021   -0.0041    0.0020 C.2       1 <0>        -0.1255
      3 C3          1.3172   -0.7397   -0.0145 C.3       1 <0>         0.1012
      4 O1          1.4666   -1.4757    1.2012 O.3       1 <0>        -0.2849
      5 C4          2.6041   -2.1980    1.3475 C.ar      1 <0>         0.1139
      6 C5          3.5644   -2.1923    0.3360 C.ar      1 <0>        -0.1766
      7 C6          4.7186   -2.9013    0.4403 C.ar      1 <0>        -0.0863
      8 C7          4.9904   -3.6747    1.5844 C.ar      1 <0>        -0.0749
      9 C8          6.1817   -4.4101    1.6999 C.ar      1 <0>        -0.1042
     10 C9          6.4124   -5.1479    2.8217 C.ar      1 <0>        -0.1274
     11 C10         5.4839   -5.1852    3.8581 C.ar      1 <0>        -0.1176
     12 C11         4.3172   -4.4828    3.7780 C.ar      1 <0>        -0.0969
     13 C12         4.0490   -3.7148    2.6404 C.ar      1 <0>        -0.0144
     14 C13         2.8117   -2.9414    2.5154 C.ar      1 <0>        -0.0540
     15 C14         1.8140   -2.9495    3.5835 C.2       1 <0>        -0.1176
     16 C15         1.3149   -1.7781    4.0553 C.2       1 <0>        -0.1393
     17 C16         0.3526   -1.7860    5.0854 C.2       1 <0>         0.5014
     18 O2         -0.0336   -2.8503    5.5553 O.co2     1 <0>        -0.6970
     19 O3         -0.0979   -0.7285    5.5114 O.co2     1 <0>        -0.7003
     20 Br1        -1.6225   -0.9718    0.0123 Br        1 <0>        -0.0487
     21 H1          0.9121    1.8597    0.0033 H         1 <0>         0.1226
     22 H2         -0.9582    1.8343    0.0166 H         1 <0>         0.1205
     23 H3          1.3385   -1.4270   -0.8602 H         1 <0>         0.0747
     24 H4          2.1332   -0.0231   -0.1080 H         1 <0>         0.0770
     25 H5          3.3854   -1.6085   -0.5548 H         1 <0>         0.1251
     26 H6          5.4371   -2.8713   -0.3655 H         1 <0>         0.1253
     27 H7          6.9108   -4.3910    0.9033 H         1 <0>         0.1224
     28 H8          7.3291   -5.7124    2.9081 H         1 <0>         0.1186
     29 H9          5.6898   -5.7782    4.7369 H         1 <0>         0.1222
     30 H10         3.6043   -4.5199    4.5885 H         1 <0>         0.1344
     31 H11         1.4737   -3.8872    3.9974 H         1 <0>         0.1292
     32 H12         1.6552   -0.8404    3.6414 H         1 <0>         0.0946
@<TRIPOS>BOND
     1    1    2 2
     2    1   21 1
     3    1   22 1
     4    2    3 1
     5    2   20 1
     6    3    4 1
     7    3   23 1
     8    3   24 1
     9    4    5 1
    10    5   14 ar
    11    5    6 ar
    12    6    7 ar
    13    6   25 1
    14    7    8 ar
    15    7   26 1
    16    8   13 ar
    17    8    9 ar
    18    9   10 ar
    19    9   27 1
    20   10   11 ar
    21   10   28 1
    22   11   12 ar
    23   11   29 1
    24   12   13 ar
    25   12   30 1
    26   13   14 ar
    27   14   15 1
    28   15   16 2
    29   15   31 1
    30   16   17 1
    31   16   32 1
    32   17   18 2
    33   17   19 1
@<TRIPOS>MOLECULE
ZINC43554459
   35    37     0     0     0
SMALL
USER_CHARGES

@<TRIPOS>ATOM
      1 C1         -0.0187    1.5258    0.0104 C.3       1 <0>        -0.1451
      2 C2          0.0021   -0.0041    0.0020 C.3       1 <0>        -0.0329
      3 C3          0.7074   -0.4901   -1.2379 C.2       1 <0>        -0.1953
      4 C4          2.0244   -0.7607   -1.4189 C.2       1 <0>        -0.1618
      5 C5          2.4568   -1.2007   -2.6524 C.2       1 <0>        -0.1697
      6 C6          1.5374   -1.3499   -3.6564 C.2       1 <0>        -0.0779
      7 S1          0.0236   -0.8651   -2.8436 S.3       1 <0>         0.1635
      8 C7          1.7440   -1.7995   -5.0488 C.2       1 <0>         0.0407
      9 C8          2.7157   -1.2483   -5.8158 C.2       1 <0>        -0.2078
     10 S2          2.5603   -2.1099   -7.3685 S.3       1 <0>         0.0448
     11 C9          1.2081   -3.1822   -6.9618 C.ar      1 <0>         0.1627
     12 C10         0.9090   -2.8509   -5.6231 C.ar      1 <0>        -0.2987
     13 C11        -0.1560   -3.5811   -5.0380 C.ar      1 <0>         0.4760
     14 O1         -0.5301   -3.3398   -3.7587 O.3       1 <0>        -0.6403
     15 N1         -0.7802   -4.4996   -5.7549 N.ar      1 <0>        -0.5875
     16 C12        -0.4452   -4.7633   -7.0051 C.ar      1 <0>         0.3568
     17 N2          0.5307   -4.1112   -7.6069 N.ar      1 <0>        -0.5703
     18 C13        -1.2006   -5.8243   -7.7632 C.3       1 <0>         0.0835
     19 H1         -0.6421   -6.0987   -8.6580 H         1 <0>         0.1158
     20 C14        -2.5742   -5.2834   -8.1652 C.3       1 <0>        -0.1201
     21 C15        -3.2917   -6.3131   -9.0403 C.3       1 <0>        -0.1513
     22 Cl1        -1.4098   -7.2771   -6.7161 Cl        1 <0>        -0.1608
     23 H2          1.0039    1.9031    0.0027 H         1 <0>         0.0554
     24 H3         -0.5459    1.8868   -0.8726 H         1 <0>         0.0558
     25 H4         -0.5289    1.8773    0.9072 H         1 <0>         0.0566
     26 H5          0.5293   -0.3651    0.8851 H         1 <0>         0.0758
     27 H6         -1.0205   -0.3814    0.0098 H         1 <0>         0.0734
     28 H7          2.7255   -0.6329   -0.6073 H         1 <0>         0.1176
     29 H8          3.4997   -1.4229   -2.8232 H         1 <0>         0.1218
     30 H9          3.4170   -0.4712   -5.5499 H         1 <0>         0.1826
     31 H10        -3.1657   -5.0923   -7.2698 H         1 <0>         0.0836
     32 H11        -2.4501   -4.3555   -8.7235 H         1 <0>         0.0777
     33 H12        -2.7001   -6.5042   -9.9357 H         1 <0>         0.0549
     34 H13        -3.4158   -7.2410   -8.4820 H         1 <0>         0.0630
     35 H14        -4.2702   -5.9277   -9.3267 H         1 <0>         0.0575
@<TRIPOS>BOND
     1    1    2 1
     2    1   23 1
     3    1   24 1
     4    1   25 1
     5    2    3 1
     6    2   26 1
     7    2   27 1
     8    3    7 1
     9    3    4 2
    10    4    5 1
    11    4   28 1
    12    5    6 2
    13    5   29 1
    14    6    7 1
    15    6    8 1
    16    8   12 1
    17    8    9 2
    18    9   10 1
    19    9   30 1
    20   10   11 1
    21   11   17 ar
    22   11   12 ar
    23   12   13 ar
    24   13   14 1
    25   13   15 ar
    26   15   16 ar
    27   16   17 ar
    28   16   18 1
    29   18   19 1
    30   18   20 1
    31   18   22 1
    32   20   21 1
    33   20   31 1
    34   20   32 1
    35   21   33 1
    36   21   34 1
    37   21   35 1
@<TRIPOS>MOLECULE
ZINC61829265
   29    29     0     0     0
SMALL
USER_CHARGES

@<TRIPOS>ATOM
      1 C1         -0.0187    1.5258    0.0104 C.3       1 <0>        -0.1460
      2 C2          0.0021   -0.0041    0.0020 C.3       1 <0>        -0.0639
      3 H1          0.5123   -0.3556   -0.8948 H         1 <0>         0.0695
      4 C3          0.7421   -0.5109    1.2415 C.3       1 <0>        -0.1077
      5 C4          2.2100   -0.0858    1.1685 C.3       1 <0>        -0.0943
      6 C5          2.9389   -0.5850    2.3894 C.ar      1 <0>        -0.0350
      7 C6          3.0918    0.2394    3.4883 C.ar      1 <0>        -0.0850
      8 C7          3.7608   -0.2187    4.6088 C.ar      1 <0>        -0.0746
      9 C8          4.2769   -1.5022    4.6297 C.ar      1 <0>        -0.0981
     10 C9          4.1236   -2.3265    3.5314 C.ar      1 <0>        -0.0835
     11 C10         3.4498   -1.8700    2.4125 C.ar      1 <0>        -0.0804
     12 Br1         3.2338   -3.0006    0.9122 Br        1 <0>        -0.0320
     13 Br2         3.9706    0.9094    6.1119 Br        1 <0>        -0.0468
     14 C11        -1.4333   -0.5336    0.0129 C.3       1 <0>        -0.1790
     15 C12        -2.1247   -0.1373   -1.2662 C.2       1 <0>         0.4904
     16 O1         -1.5249    0.5089   -2.1084 O.co2     1 <0>        -0.6939
     17 O2         -3.2838   -0.4628   -1.4588 O.co2     1 <0>        -0.7101
     18 H2          1.0039    1.9031    0.0027 H         1 <0>         0.0364
     19 H3         -0.5459    1.8868   -0.8726 H         1 <0>         0.0850
     20 H4         -0.5289    1.8773    0.9072 H         1 <0>         0.0346
     21 H5          0.2852   -0.0874    2.1360 H         1 <0>         0.0568
     22 H6          0.6803   -1.5984    1.2822 H         1 <0>         0.0609
     23 H7          2.6669   -0.5093    0.2741 H         1 <0>         0.0854
     24 H8          2.2717    1.0017    1.1279 H         1 <0>         0.0831
     25 H9          2.6893    1.2415    3.4718 H         1 <0>         0.1418
     26 H10         4.7999   -1.8597    5.5044 H         1 <0>         0.1388
     27 H11         4.5268   -3.3283    3.5476 H         1 <0>         0.1402
     28 H12        -1.4190   -1.6203    0.0965 H         1 <0>         0.0538
     29 H13        -1.9701   -0.1109    0.8621 H         1 <0>         0.0538
@<TRIPOS>BOND
     1    1    2 1
     2    1   18 1
     3    1   19 1
     4    1   20 1
     5    2    3 1
     6    2    4 1
     7    2   14 1
     8    4    5 1
     9    4   21 1
    10    4   22 1
    11    5    6 1
    12    5   23 1
    13    5   24 1
    14    6   11 ar
    15    6    7 ar
    16    7    8 ar
    17    7   25 1
    18    8    9 ar
    19    8   13 1
    20    9   10 ar
    21    9   26 1
    22   10   11 ar
    23   10   27 1
    24   11   12 1
    25   14   15 1
    26   14   28 1
    27   14   29 1
    28   15   16 2
    29   15   17 1
@<TRIPOS>MOLECULE
ZINC16479682
   36    38     0     0     0
SMALL
USER_CHARGES
5-(benzyl-phenyl-amino)thiophene-2-carboxylic acid
@<TRIPOS>ATOM
      1 C1         -5.0149    2.0289    3.8918 C.ar      1 <0>        -0.1166
      2 C2         -5.4157    3.2255    3.3277 C.ar      1 <0>        -0.1188
      3 C3         -4.9942    3.5655    2.0558 C.ar      1 <0>        -0.0960
      4 C4         -4.1723    2.7086    1.3479 C.ar      1 <0>        -0.1119
      5 C5         -3.7762    1.5093    1.9098 C.ar      1 <0>        -0.1006
      6 C6         -4.1933    1.1718    3.1838 C.ar      1 <0>        -0.1268
      7 C7         -3.7132    3.0790   -0.0389 C.3       1 <0>         0.1660
      8 N1         -2.4540    3.8228    0.0460 N.pl3     1 <0>        -0.5379
      9 C8         -1.2356    3.1397    0.0139 C.ar      1 <0>         0.1675
     10 C9         -0.4332    3.0934    1.1471 C.ar      1 <0>        -0.1157
     11 C10         0.7730    2.4221    1.1101 C.ar      1 <0>        -0.1090
     12 C11         1.1773    1.7868   -0.0498 C.ar      1 <0>        -0.1275
     13 C12         0.3785    1.8261   -1.1780 C.ar      1 <0>        -0.1101
     14 C13        -0.8264    2.5004   -1.1497 C.ar      1 <0>        -0.1261
     15 C14        -2.4712    5.2034    0.1582 C.2       1 <0>         0.0715
     16 C15        -1.4020    6.0765    0.1761 C.2       1 <0>        -0.2471
     17 C16        -1.6487    7.4165    0.2923 C.2       1 <0>        -0.0965
     18 C17        -2.9762    7.8133    0.3967 C.2       1 <0>        -0.1927
     19 S1         -3.8404    6.2548    0.3178 S.3       1 <0>         0.1329
     20 C18        -3.5062    9.1181    0.5318 C.2       1 <0>         0.5235
     21 O1         -2.7586   10.0779    0.5690 O.co2     1 <0>        -0.6250
     22 H1         -5.3439    1.7635    4.8857 H         1 <0>         0.1196
     23 H2         -6.0578    3.8950    3.8807 H         1 <0>         0.1245
     24 H3         -5.3074    4.5004    1.6150 H         1 <0>         0.1294
     25 H4         -3.1376    0.8379    1.3551 H         1 <0>         0.1170
     26 H5         -3.8805    0.2367    3.6244 H         1 <0>         0.1188
     27 H6         -4.4701    3.6995   -0.5185 H         1 <0>         0.0893
     28 H7         -3.5612    2.1729   -0.6254 H         1 <0>         0.0887
     29 H8         -0.7504    3.5856    2.0546 H         1 <0>         0.1231
     30 H9          1.3993    2.3895    1.9894 H         1 <0>         0.1230
     31 H10         2.1190    1.2585   -0.0746 H         1 <0>         0.1212
     32 H11         0.6971    1.3286   -2.0821 H         1 <0>         0.1235
     33 H12        -1.4499    2.5303   -2.0310 H         1 <0>         0.1239
     34 H13        -0.3898    5.7083    0.0965 H         1 <0>         0.1174
     35 H14        -0.8441    8.1368    0.3067 H         1 <0>         0.1341
     36 O2         -4.8412    9.2986    0.6194 O.co2     1 <0>        -0.7567
@<TRIPOS>BOND
     1    1    6 ar
     2    1    2 ar
     3    1   22 1
     4    2    3 ar
     5    2   23 1
     6    3    4 ar
     7    3   24 1
     8    4    5 ar
     9    4    7 1
    10    5    6 ar
    11    5   25 1
    12    6   26 1
    13    7    8 1
    14    7   27 1
    15    7   28 1
    16    8    9 1
    17    8   15 1
    18    9   14 ar
    19    9   10 ar
    20   10   11 ar
    21   10   29 1
    22   11   12 ar
    23   11   30 1
    24   12   13 ar
    25   12   31 1
    26   13   14 ar
    27   13   32 1
    28   14   33 1
    29   15   19 1
    30   15   16 2
    31   16   17 1
    32   16   34 1
    33   17   18 2
    34   17   35 1
    35   18   19 1
    36   18   20 1
    37   20   21 2
    38   20   36 1
@<TRIPOS>MOLECULE
ZINC36670489
   35    36     0     0     0
SMALL
USER_CHARGES

@<TRIPOS>ATOM
      1 C1         -0.0187    1.5258    0.0104 C.3       1 <0>        -0.1429
      2 C2          0.0021   -0.0041    0.0020 C.3       1 <0>        -0.1113
      3 H1          0.5122   -0.3561   -0.8946 H         1 <0>         0.0681
      4 C3         -1.4334   -0.5345    0.0145 C.3       1 <0>        -0.0997
      5 C4         -1.4142   -2.0642   -0.0270 C.3       1 <0>        -0.1104
      6 H2         -2.4371   -2.4406   -0.0417 H         1 <0>         0.0672
      7 C5         -0.6916   -2.5957    1.2148 C.3       1 <0>         0.1639
      8 N1          0.6392   -1.9773    1.2884 N.pl3     1 <0>        -0.6416
      9 C6          0.7415   -0.5122    1.2437 C.3       1 <0>         0.1649
     10 C7          1.7780   -2.7618    1.3981 C.ar      1 <0>         0.2104
     11 C8          2.4407   -3.1945    0.2563 C.ar      1 <0>        -0.1174
     12 C9          3.5738   -3.9751    0.3683 C.ar      1 <0>        -0.0901
     13 C10         4.0600   -4.3337    1.6179 C.ar      1 <0>        -0.1160
     14 C11         3.4181   -3.9148    2.7607 C.ar      1 <0>        -0.0795
     15 C12         2.2711   -3.1184    2.6651 C.ar      1 <0>        -0.1298
     16 C13         1.5832   -2.6630    3.8816 C.2       1 <0>         0.5190
     17 O1          2.0160   -2.9758    4.9826 O.co2     1 <0>        -0.6951
     18 O2          0.5778   -1.9711    3.7933 O.co2     1 <0>        -0.6608
     19 Br1         4.4691   -4.5601   -1.1912 Br        1 <0>        -0.0799
     20 C14        -0.6799   -2.5317   -1.2853 C.3       1 <0>        -0.1408
     21 H3          1.0039    1.9031    0.0027 H         1 <0>         0.0513
     22 H4         -0.5459    1.8868   -0.8726 H         1 <0>         0.0492
     23 H5         -0.5289    1.8773    0.9072 H         1 <0>         0.0546
     24 H6         -1.9355   -0.2021    0.9231 H         1 <0>         0.0613
     25 H7         -1.9686   -0.1542   -0.8556 H         1 <0>         0.0509
     26 H8         -1.2630   -2.3406    2.1072 H         1 <0>         0.0583
     27 H9         -0.5879   -3.6783    1.1418 H         1 <0>         0.0537
     28 H10         1.7902   -0.2201    1.1896 H         1 <0>         0.0525
     29 H11         0.2874   -0.0872    2.1389 H         1 <0>         0.0586
     30 H12         2.0688   -2.9203   -0.7198 H         1 <0>         0.1241
     31 H13         4.9469   -4.9453    1.6937 H         1 <0>         0.1220
     32 H14         3.8011   -4.1969    3.7302 H         1 <0>         0.1333
     33 H15         0.3432   -2.1560   -1.2696 H         1 <0>         0.0621
     34 H16        -0.6665   -3.6212   -1.3144 H         1 <0>         0.0465
     35 H17        -1.1933   -2.1509   -2.1682 H         1 <0>         0.0430
@<TRIPOS>BOND
     1    1    2 1
     2    1   21 1
     3    1   22 1
     4    1   23 1
     5    2    3 1
     6    2    9 1
     7    2    4 1
     8    4    5 1
     9    4   24 1
    10    4   25 1
    11    5    6 1
    12    5    7 1
    13    5   20 1
    14    7    8 1
    15    7   26 1
    16    7   27 1
    17    8    9 1
    18    8   10 1
    19    9   28 1
    20    9   29 1
    21   10   15 ar
    22   10   11 ar
    23   11   12 ar
    24   11   30 1
    25   12   13 ar
    26   12   19 1
    27   13   14 ar
    28   13   31 1
    29   14   15 ar
    30   14   32 1
    31   15   16 1
    32   16   17 2
    33   16   18 1
    34   20   33 1
    35   20   34 1
    36   20   35 1
@<TRIPOS>MOLECULE
ZINC41982706
   40    41     0     0     0
SMALL
USER_CHARGES

@<TRIPOS>ATOM
      1 C1         -1.6551    1.3810   -0.7860 C.3       1 <0>        -0.1055
      2 C2         -1.2678    0.0587   -0.1756 C.ar      1 <0>        -0.0966
      3 C3         -0.0787   -0.0601    0.5193 C.ar      1 <0>        -0.1335
      4 C4          0.2765   -1.2730    1.0791 C.ar      1 <0>        -0.0499
      5 C5         -0.5576   -2.3671    0.9446 C.ar      1 <0>        -0.0387
      6 C6         -1.7472   -2.2481    0.2505 C.ar      1 <0>        -0.0684
      7 C7         -2.1044   -1.0341   -0.3057 C.ar      1 <0>        -0.1324
      8 C8         -2.6563   -3.4410    0.1034 C.3       1 <0>        -0.1365
      9 C9         -0.1699   -3.6897    1.5541 C.3       1 <0>        -0.0636
     10 C10         0.6045   -3.4461    2.8510 C.3       1 <0>        -0.1417
     11 C11         0.6974   -4.4535    0.5870 C.2       1 <0>         0.5102
     12 O1          1.8022   -4.0297    0.2931 O.co2     1 <0>        -0.6737
     13 O2          0.2944   -5.4953    0.0985 O.co2     1 <0>        -0.6659
     14 S1         -1.6654   -4.6510    1.9144 S.3       1 <0>        -0.1818
     15 C12        -1.0339   -6.1922    2.6331 C.3       1 <0>        -0.0546
     16 C13        -2.1895   -7.0941    2.9826 C.2       1 <0>         0.0269
     17 C14        -2.7430   -8.0136    2.1717 C.2       1 <0>        -0.2010
     18 C15        -3.7894   -8.6250    2.8998 C.2       1 <0>        -0.2114
     19 C16        -3.8128   -8.0425    4.1120 C.2       1 <0>        -0.0561
     20 O3         -2.8378   -7.1200    4.1585 O.3       1 <0>        -0.1775
     21 C17         1.5733   -1.4027    1.8358 C.3       1 <0>        -0.1426
     22 H1         -2.2264    1.9619   -0.0620 H         1 <0>         0.0629
     23 H2         -0.7555    1.9302   -1.0639 H         1 <0>         0.0608
     24 H3         -2.2634    1.2072   -1.6736 H         1 <0>         0.0607
     25 H4          0.5729    0.7947    0.6244 H         1 <0>         0.1150
     26 H5         -3.0355   -0.9402   -0.8448 H         1 <0>         0.1150
     27 H6         -3.2420   -3.5659    1.0141 H         1 <0>         0.0797
     28 H7         -3.3270   -3.2846   -0.7414 H         1 <0>         0.0600
     29 H8         -2.0573   -4.3353   -0.0689 H         1 <0>         0.1227
     30 H9          0.2205   -2.5514    3.3409 H         1 <0>         0.0595
     31 H10         0.4832   -4.3034    3.5131 H         1 <0>         0.0428
     32 H11         1.6617   -3.3100    2.6227 H         1 <0>         0.0880
     33 H12        -0.3884   -6.6921    1.9109 H         1 <0>         0.1265
     34 H13        -0.4640   -5.9661    3.5343 H         1 <0>         0.0768
     35 H14        -2.4455   -8.2408    1.1586 H         1 <0>         0.1507
     36 H15        -4.4445   -9.4090    2.5497 H         1 <0>         0.1445
     37 H16        -4.4970   -8.2793    4.9134 H         1 <0>         0.1976
     38 H17         1.3636   -1.5162    2.8994 H         1 <0>         0.0729
     39 H18         2.1172   -2.2767    1.4775 H         1 <0>         0.1124
     40 H19         2.1770   -0.5090    1.6779 H         1 <0>         0.0454
@<TRIPOS>BOND
     1    1    2 1
     2    1   22 1
     3    1   23 1
     4    1   24 1
     5    2    7 ar
     6    2    3 ar
     7    3    4 ar
     8    3   25 1
     9    4    5 ar
    10    4   21 1
    11    5    6 ar
    12    5    9 1
    13    6    7 ar
    14    6    8 1
    15    7   26 1
    16    8   27 1
    17    8   28 1
    18    8   29 1
    19    9   10 1
    20    9   11 1
    21    9   14 1
    22   10   30 1
    23   10   31 1
    24   10   32 1
    25   11   12 2
    26   11   13 1
    27   14   15 1
    28   15   16 1
    29   15   33 1
    30   15   34 1
    31   16   20 1
    32   16   17 2
    33   17   18 1
    34   17   35 1
    35   18   19 2
    36   18   36 1
    37   19   20 1
    38   19   37 1
    39   21   38 1
    40   21   39 1
    41   21   40 1
@<TRIPOS>MOLECULE
ZINC53159231
   31    33     0     0     0
SMALL
USER_CHARGES

@<TRIPOS>ATOM
      1 C1          0.0320    1.4375    0.1618 C.ar      1 <0>        -0.1232
      2 C2          1.2151    2.0890    0.4620 C.ar      1 <0>        -0.1144
      3 C3          2.4136    1.4077    0.4099 C.ar      1 <0>        -0.0883
      4 C4          2.4308    0.0583    0.0538 C.ar      1 <0>         0.0237
      5 C5          1.2337   -0.5930   -0.2474 C.ar      1 <0>        -0.1248
      6 C6          0.0421    0.1000   -0.1919 C.ar      1 <0>        -0.1161
      7 C7          3.7116   -0.6779   -0.0046 C.2       1 <0>         0.1476
      8 N1          4.8724   -0.1951   -0.3820 N.2       1 <0>        -0.2737
      9 N2          5.7723   -1.1097   -0.3100 N.2       1 <0>        -0.3405
     10 C8          5.2407   -2.2331    0.1179 C.2       1 <0>         0.3780
     11 N3          3.9128   -1.9966    0.3321 N.pl3     1 <0>        -0.4833
     12 C9          2.9110   -2.9493    0.8168 C.3       1 <0>         0.1540
     13 C10         2.7294   -2.7748    2.3026 C.ar      1 <0>        -0.1013
     14 C11         3.5840   -3.4130    3.1825 C.ar      1 <0>        -0.0504
     15 C12         3.4194   -3.2538    4.5453 C.ar      1 <0>        -0.1452
     16 C13         2.3980   -2.4548    5.0303 C.ar      1 <0>         0.1104
     17 C14         1.5420   -1.8156    4.1482 C.ar      1 <0>        -0.0791
     18 C15         1.7124   -1.9725    2.7845 C.ar      1 <0>        -0.0657
     19 Cl1         0.2605   -0.8132    4.7538 Cl        1 <0>        -0.0560
     20 F1          2.2360   -2.2990    6.3624 F         1 <0>        -0.1299
     21 S1          6.0852   -3.7583    0.3734 S.3       1 <0>        -0.7998
     22 H1         -0.9040    1.9743    0.2081 H         1 <0>         0.1203
     23 H2          1.2004    3.1332    0.7374 H         1 <0>         0.1238
     24 H3          3.3366    1.9176    0.6438 H         1 <0>         0.1293
     25 H4          1.2402   -1.6370   -0.5240 H         1 <0>         0.1229
     26 H5         -0.8850   -0.4028   -0.4248 H         1 <0>         0.1233
     27 H6          1.9626   -2.7679    0.3111 H         1 <0>         0.0936
     28 H7          3.2453   -3.9656    0.6085 H         1 <0>         0.1181
     29 H8          4.3806   -4.0366    2.8044 H         1 <0>         0.1582
     30 H9          4.0871   -3.7529    5.2320 H         1 <0>         0.1461
     31 H10         1.0482   -1.4710    2.0961 H         1 <0>         0.1423
@<TRIPOS>BOND
     1    1    6 ar
     2    1    2 ar
     3    1   22 1
     4    2    3 ar
     5    2   23 1
     6    3    4 ar
     7    3   24 1
     8    4    5 ar
     9    4    7 1
    10    5    6 ar
    11    5   25 1
    12    6   26 1
    13    7   11 1
    14    7    8 2
    15    8    9 1
    16    9   10 2
    17   10   21 1
    18   10   11 1
    19   11   12 1
    20   12   13 1
    21   12   27 1
    22   12   28 1
    23   13   18 ar
    24   13   14 ar
    25   14   15 ar
    26   14   29 1
    27   15   16 ar
    28   15   30 1
    29   16   17 ar
    30   16   20 1
    31   17   18 ar
    32   17   19 1
    33   18   31 1
@<TRIPOS>MOLECULE
ZINC62763569
   37    39     0     0     0
SMALL
USER_CHARGES

@<TRIPOS>ATOM
      1 C1          0.0009    1.2883   -0.9001 C.ar      1 <0>        -0.1403
      2 C2          1.1563    2.0388   -0.6894 C.ar      1 <0>        -0.1038
      3 C3          2.3566    1.4327   -0.4798 C.ar      1 <0>        -0.1198
      4 C4          2.4358    0.0292   -0.4750 C.ar      1 <0>         0.0134
      5 C5          1.2607   -0.7343   -0.6893 C.ar      1 <0>        -0.0918
      6 C6          0.0393   -0.0721   -0.9024 C.ar      1 <0>        -0.0875
      7 C7          1.3359   -2.1375   -0.6841 C.ar      1 <0>        -0.0563
      8 C8          2.5312   -2.7515   -0.4744 C.ar      1 <0>        -0.1903
      9 C9          3.6946   -2.0064   -0.2619 C.ar      1 <0>         0.2014
     10 C10         3.6579   -0.6302   -0.2613 C.ar      1 <0>        -0.1464
     11 Br1         5.2398    0.3649    0.0268 Br        1 <0>        -0.0325
     12 O1          4.8749   -2.6474   -0.0541 O.3       1 <0>        -0.2530
     13 C11         4.8298   -4.0719    0.0512 C.3       1 <0>         0.1118
     14 H1          3.9107   -4.3700    0.5555 H         1 <0>         0.0651
     15 C12         4.8664   -4.6881   -1.3487 C.3       1 <0>        -0.1480
     16 C13         4.8182   -6.2132   -1.2361 C.3       1 <0>        -0.1119
     17 C14         6.0235   -6.7035   -0.4313 C.3       1 <0>        -0.1239
     18 C15         5.9869   -6.0873    0.9686 C.3       1 <0>        -0.0888
     19 C16         6.0352   -4.5622    0.8559 C.3       1 <0>        -0.1532
     20 H2          6.9544   -4.2640    0.3516 H         1 <0>         0.0719
     21 C17         5.9991   -3.9552    2.2348 C.2       1 <0>         0.4929
     22 O2          6.4735   -4.5614    3.1803 O.co2     1 <0>        -0.7035
     23 O3          5.4955   -2.8579    2.4049 O.co2     1 <0>        -0.6723
     24 H3         -0.9400    1.7940   -1.0596 H         1 <0>         0.1191
     25 H4          1.0983    3.1172   -0.6930 H         1 <0>         0.1210
     26 H5          3.2438    2.0269   -0.3182 H         1 <0>         0.1322
     27 H6         -0.8644   -0.6401   -1.0668 H         1 <0>         0.1246
     28 H7          0.4458   -2.7274   -0.8462 H         1 <0>         0.1320
     29 H8          2.5822   -3.8303   -0.4717 H         1 <0>         0.1379
     30 H9          4.0077   -4.3388   -1.9221 H         1 <0>         0.0615
     31 H10         5.7856   -4.3900   -1.8530 H         1 <0>         0.0713
     32 H11         3.8990   -6.5113   -0.7318 H         1 <0>         0.0601
     33 H12         4.8442   -6.6522   -2.2334 H         1 <0>         0.0609
     34 H13         5.9891   -7.7900   -0.3510 H         1 <0>         0.0581
     35 H14         6.9427   -6.4054   -0.9356 H         1 <0>         0.0594
     36 H15         5.0677   -6.3854    1.4729 H         1 <0>         0.0546
     37 H16         6.8456   -6.4366    1.5420 H         1 <0>         0.0743
@<TRIPOS>BOND
     1    1    6 ar
     2    1    2 ar
     3    1   24 1
     4    2    3 ar
     5    2   25 1
     6    3    4 ar
     7    3   26 1
     8    4   10 ar
     9    4    5 ar
    10    5    6 ar
    11    5    7 ar
    12    6   27 1
    13    7    8 ar
    14    7   28 1
    15    8    9 ar
    16    8   29 1
    17    9   10 ar
    18    9   12 1
    19   10   11 1
    20   12   13 1
    21   13   14 1
    22   13   19 1
    23   13   15 1
    24   15   16 1
    25   15   30 1
    26   15   31 1
    27   16   17 1
    28   16   32 1
    29   16   33 1
    30   17   18 1
    31   17   34 1
    32   17   35 1
    33   18   19 1
    34   18   36 1
    35   18   37 1
    36   19   20 1
    37   19   21 1
    38   21   22 2
    39   21   23 1
@<TRIPOS>MOLECULE
ZINC12032590
   45    47     0     0     0
SMALL
USER_CHARGES
(2R)-2-[(5Z)-5-[(4-isopropylphenyl)methylene]-4-oxo-2-thioxo-thiazolidin-3-yl]-2-phenyl-acetic acid
@<TRIPOS>ATOM
      1 C1          2.5896    7.4364   -4.5641 C.3       1 <0>        -0.1464
      2 C2          3.4047    7.3737   -3.2708 C.3       1 <0>        -0.0594
      3 C3          2.5895    7.9755   -2.1244 C.3       1 <0>        -0.1460
      4 C4          3.7337    5.9377   -2.9535 C.ar      1 <0>        -0.0575
      5 C5          5.0560    5.5379   -2.8650 C.ar      1 <0>        -0.1214
      6 C6          5.3654    4.2261   -2.5747 C.ar      1 <0>        -0.0784
      7 C7          4.3385    3.2981   -2.3692 C.ar      1 <0>        -0.0879
      8 C8          3.0045    3.7092   -2.4661 C.ar      1 <0>        -0.0879
      9 C9          2.7120    5.0259   -2.7516 C.ar      1 <0>        -0.1106
     10 C10         4.6595    1.8974   -2.0591 C.2       1 <0>         0.0575
     11 C11         3.6774    1.0468   -1.6704 C.2       1 <0>        -0.2136
     12 C12         3.7237   -0.4172   -1.4685 C.2       1 <0>         0.5411
     13 O1          4.7436   -1.0559   -1.6488 O.2       1 <0>        -0.4020
     14 N1          2.6007   -0.9961   -1.0780 N.am      1 <0>        -0.4889
     15 C13         1.4710   -0.2853   -0.8855 C.2       1 <0>         0.2847
     16 S1         -0.0686   -0.8493   -0.3932 S.2       1 <0>        -0.3876
     17 S2          1.9688    1.3861   -1.2686 S.3       1 <0>         0.0501
     18 C14         2.5817   -2.4441   -0.8558 C.3       1 <0>         0.0984
     19 H1          1.5584   -2.7695   -0.6684 H         1 <0>         0.1401
     20 C15         3.4420   -2.7810    0.3347 C.ar      1 <0>        -0.0639
     21 C16         3.8098   -1.7890    1.2245 C.ar      1 <0>        -0.1214
     22 C17         4.5957   -2.0987    2.3187 C.ar      1 <0>        -0.1261
     23 C18         5.0205   -3.3989    2.5187 C.ar      1 <0>        -0.1282
     24 C19         4.6570   -4.3899    1.6262 C.ar      1 <0>        -0.1232
     25 C20         3.8679   -4.0809    0.5340 C.ar      1 <0>        -0.0893
     26 C21         3.1166   -3.1467   -2.0770 C.2       1 <0>         0.4801
     27 O2          3.4767   -2.5039   -3.0346 O.co2     1 <0>        -0.6088
     28 H2          2.3516    8.4750   -4.7936 H         1 <0>         0.0589
     29 H3          3.1704    7.0077   -5.3808 H         1 <0>         0.0572
     30 H4          1.6661    6.8711   -4.4392 H         1 <0>         0.0591
     31 H5          4.3283    7.9390   -3.3956 H         1 <0>         0.0792
     32 H6          3.1702    7.9308   -1.2031 H         1 <0>         0.0570
     33 H7          2.3515    9.0141   -2.3540 H         1 <0>         0.0588
     34 H8          1.6659    7.4102   -1.9996 H         1 <0>         0.0591
     35 H9          5.8473    6.2553   -3.0243 H         1 <0>         0.1280
     36 H10         6.3976    3.9158   -2.5057 H         1 <0>         0.1333
     37 H11         2.2062    2.9980   -2.3132 H         1 <0>         0.1325
     38 H12         1.6829    5.3459   -2.8220 H         1 <0>         0.1295
     39 H13         5.6766    1.5447   -2.1452 H         1 <0>         0.1611
     40 H14         3.4807   -0.7726    1.0663 H         1 <0>         0.0991
     41 H15         4.8800   -1.3244    3.0159 H         1 <0>         0.1153
     42 H16         5.6367   -3.6404    3.3722 H         1 <0>         0.1161
     43 H17         4.9892   -5.4056    1.7822 H         1 <0>         0.1210
     44 H18         3.5839   -4.8551   -0.1633 H         1 <0>         0.1643
     45 O3          3.1930   -4.4866   -2.1008 O.co2     1 <0>        -0.7329
@<TRIPOS>BOND
     1    1    2 1
     2    1   28 1
     3    1   29 1
     4    1   30 1
     5    2    3 1
     6    2    4 1
     7    2   31 1
     8    3   32 1
     9    3   33 1
    10    3   34 1
    11    4    9 ar
    12    4    5 ar
    13    5    6 ar
    14    5   35 1
    15    6    7 ar
    16    6   36 1
    17    7    8 ar
    18    7   10 1
    19    8    9 ar
    20    8   37 1
    21    9   38 1
    22   10   11 2
    23   10   39 1
    24   11   17 1
    25   11   12 1
    26   12   13 2
    27   12   14 am
    28   14   15 1
    29   14   18 1
    30   15   16 2
    31   15   17 1
    32   18   19 1
    33   18   20 1
    34   18   26 1
    35   20   25 ar
    36   20   21 ar
    37   21   22 ar
    38   21   40 1
    39   22   23 ar
    40   22   41 1
    41   23   24 ar
    42   23   42 1
    43   24   25 ar
    44   24   43 1
    45   25   44 1
    46   26   27 2
    47   26   45 1
@<TRIPOS>MOLECULE
ZINC36724546
   38    39     0     0     0
SMALL
USER_CHARGES

@<TRIPOS>ATOM
      1 C1         -0.0184    1.5028    0.0103 C.3       1 <0>        -0.1168
      2 C2          0.0021   -0.0041    0.0020 C.ar      1 <0>        -0.0878
      3 C3          0.0057   -0.6873   -1.2005 C.ar      1 <0>        -0.1007
      4 C4          0.0239   -2.0679   -1.2119 C.ar      1 <0>        -0.0934
      5 C5          0.0391   -2.7710   -0.0132 C.ar      1 <0>        -0.0939
      6 C6          0.0359   -2.0810    1.1932 C.ar      1 <0>        -0.1294
      7 C7          0.0229   -0.7003    1.1969 C.ar      1 <0>        -0.1010
      8 S1          0.0619   -4.5328   -0.0229 S.3       1 <0>        -0.0837
      9 C8          0.0766   -4.9812    1.7348 C.3       1 <0>        -0.1187
     10 C9          0.0970   -6.5048    1.8722 C.3       1 <0>         0.0181
     11 H1         -0.7900   -6.9244    1.3977 H         1 <0>         0.1249
     12 C10         0.1095   -6.8830    3.3547 C.3       1 <0>        -0.1072
     13 S2          0.1337   -8.6895    3.5177 S.3       1 <0>         0.0232
     14 C11         0.1461   -8.9603    5.2588 C.2       1 <0>         0.3709
     15 N1          0.1706  -10.2348    5.7379 N.am      1 <0>        -0.6149
     16 H2          0.1812  -10.9856    5.1238 H         1 <0>         0.4216
     17 C12         0.1807  -10.4496    7.0708 C.2       1 <0>         0.5298
     18 O1          0.2031  -11.5848    7.5175 O.2       1 <0>        -0.5320
     19 C13         0.1654   -9.3402    7.9343 C.2       1 <0>        -0.2967
     20 C14         0.1409   -8.0856    7.3969 C.2       1 <0>         0.1921
     21 N2          0.1368   -7.9249    6.0761 N.2       1 <0>        -0.5453
     22 C15         0.1235   -6.8803    8.3013 C.3       1 <0>        -0.1086
     23 Cl1         1.5737   -7.1607    1.0723 Cl        1 <0>        -0.1369
     24 H3          1.0042    1.8801    0.0026 H         1 <0>         0.0724
     25 H4         -0.5455    1.8639   -0.8728 H         1 <0>         0.0684
     26 H5         -0.5286    1.8543    0.9071 H         1 <0>         0.0674
     27 H6         -0.0061   -0.1403   -2.1316 H         1 <0>         0.1291
     28 H7          0.0260   -2.6008   -2.1513 H         1 <0>         0.1290
     29 H8          0.0477   -2.6241    2.1266 H         1 <0>         0.1217
     30 H9          0.0244   -0.1634    2.1339 H         1 <0>         0.1260
     31 H10         0.9637   -4.5616    2.2093 H         1 <0>         0.1059
     32 H11        -0.8161   -4.5846    2.2184 H         1 <0>         0.1105
     33 H12         0.9966   -6.4635    3.8293 H         1 <0>         0.1186
     34 H13        -0.7832   -6.4865    3.8384 H         1 <0>         0.1235
     35 H14         0.1725   -9.4784    9.0054 H         1 <0>         0.1584
     36 H15         1.1469   -6.5715    8.5148 H         1 <0>         0.0885
     37 H16        -0.4069   -6.0648    7.8097 H         1 <0>         0.0823
     38 H17        -0.3818   -7.1327    9.2335 H         1 <0>         0.0846
@<TRIPOS>BOND
     1    1    2 1
     2    1   24 1
     3    1   25 1
     4    1   26 1
     5    2    7 ar
     6    2    3 ar
     7    3    4 ar
     8    3   27 1
     9    4    5 ar
    10    4   28 1
    11    5    6 ar
    12    5    8 1
    13    6    7 ar
    14    6   29 1
    15    7   30 1
    16    8    9 1
    17    9   10 1
    18    9   31 1
    19    9   32 1
    20   10   11 1
    21   10   12 1
    22   10   23 1
    23   12   13 1
    24   12   33 1
    25   12   34 1
    26   13   14 1
    27   14   21 2
    28   14   15 1
    29   15   16 1
    30   15   17 am
    31   17   18 2
    32   17   19 1
    33   19   20 2
    34   19   35 1
    35   20   21 1
    36   20   22 1
    37   22   36 1
    38   22   37 1
    39   22   38 1
@<TRIPOS>MOLECULE
ZINC40446645
   30    31     0     0     0
SMALL
USER_CHARGES

@<TRIPOS>ATOM
      1 C1         -0.0173    1.4248    0.0099 C.3       1 <0>         0.0241
      2 O1          0.0021   -0.0041    0.0020 O.3       1 <0>        -0.2831
      3 C2         -1.2004   -0.6375    0.0101 C.ar      1 <0>         0.2440
      4 C3         -2.3748    0.1013    0.0195 C.ar      1 <0>        -0.2298
      5 C4         -3.5957   -0.5444    0.0278 C.ar      1 <0>        -0.0115
      6 C5         -3.6482   -1.9270    0.0266 C.ar      1 <0>        -0.1557
      7 C6         -2.4787   -2.6655    0.0177 C.ar      1 <0>         0.0385
      8 C7         -1.2553   -2.0235    0.0032 C.ar      1 <0>        -0.6510
      9 S1          0.2341   -2.9647   -0.0168 S.o2      1 <0>         2.6157
     10 O2          1.0662   -2.4298    1.0034 O.2       1 <0>        -1.0110
     11 O3         -0.1502   -4.3324   -0.0474 O.2       1 <0>        -1.0254
     12 N1          0.9908   -2.6533   -1.4565 N.2       1 <0>        -1.0736
     13 C8          2.2097   -3.2691   -1.7527 C.ar      1 <0>         0.3114
     14 C9          2.7849   -4.1471   -0.8425 C.ar      1 <0>        -0.2630
     15 C10         3.9894   -4.7553   -1.1367 C.ar      1 <0>        -0.0265
     16 C11         4.6248   -4.4911   -2.3370 C.ar      1 <0>        -0.1743
     17 C12         4.0545   -3.6155   -3.2473 C.ar      1 <0>         0.1482
     18 C13         2.8451   -3.0088   -2.9595 C.ar      1 <0>        -0.2090
     19 F1          4.6770   -3.3588   -4.4185 F         1 <0>        -0.1432
     20 Cl1         6.1390   -5.2571   -2.7030 Cl        1 <0>        -0.0964
     21 Br1        -5.3213   -2.8084    0.0379 Br        1 <0>        -0.0538
     22 H1          1.0053    1.8021    0.0021 H         1 <0>         0.1069
     23 H2         -0.5445    1.7859   -0.8732 H         1 <0>         0.0593
     24 H3         -0.5275    1.7763    0.9067 H         1 <0>         0.0568
     25 H4         -2.3342    1.1805    0.0208 H         1 <0>         0.1421
     26 H5         -4.5101    0.0304    0.0355 H         1 <0>         0.1377
     27 H6         -2.5218   -3.7446    0.0172 H         1 <0>         0.1546
     28 H7          2.2903   -4.3537    0.0951 H         1 <0>         0.1110
     29 H8          4.4361   -5.4377   -0.4288 H         1 <0>         0.1238
     30 H9          2.3978   -2.3301   -3.6706 H         1 <0>         0.1333
@<TRIPOS>BOND
     1    1    2 1
     2    1   22 1
     3    1   23 1
     4    1   24 1
     5    2    3 1
     6    3    8 ar
     7    3    4 ar
     8    4    5 ar
     9    4   25 1
    10    5    6 ar
    11    5   26 1
    12    6    7 ar
    13    6   21 1
    14    7    8 ar
    15    7   27 1
    16    8    9 1
    17    9   10 2
    18    9   11 2
    19    9   12 1
    20   12   13 1
    21   13   18 ar
    22   13   14 ar
    23   14   15 ar
    24   14   28 1
    25   15   16 ar
    26   15   29 1
    27   16   17 ar
    28   16   20 1
    29   17   18 ar
    30   17   19 1
    31   18   30 1
@<TRIPOS>MOLECULE
ZINC48655252
   26    27     0     0     0
SMALL
USER_CHARGES

@<TRIPOS>ATOM
      1 C1         -0.0167    1.3779    0.0096 C.ar      1 <0>        -0.1457
      2 C2          1.1704    2.0868    0.0021 C.ar      1 <0>         0.0019
      3 C3          2.3777    1.4145   -0.0131 C.ar      1 <0>        -0.6481
      4 C4          2.3989    0.0302   -0.0207 C.ar      1 <0>         0.2162
      5 C5          1.2090   -0.6796   -0.0132 C.ar      1 <0>        -0.1013
      6 C6          0.0021   -0.0041    0.0020 C.ar      1 <0>        -0.0452
      7 Cl1         1.2330   -2.4154   -0.0233 Cl        1 <0>        -0.0519
      8 F1          3.5787   -0.6279   -0.0360 F         1 <0>        -0.1001
      9 S1          3.8899    2.3189   -0.0232 S.o2      1 <0>         2.6027
     10 O1          4.6882    1.7637   -1.0594 O.2       1 <0>        -1.0120
     11 O2          3.5399    3.6956    0.0142 O.2       1 <0>        -1.0184
     12 N1          4.6672    1.9893    1.4014 N.2       1 <0>        -1.0596
     13 C7          5.9077    2.5755    1.6732 C.ar      1 <0>         0.2983
     14 C8          6.4857    3.4387    0.7517 C.ar      1 <0>        -0.2330
     15 C9          7.7105    4.0170    1.0222 C.ar      1 <0>        -0.0784
     16 C10         8.3625    3.7368    2.2114 C.ar      1 <0>        -0.0148
     17 C11         7.7886    2.8766    3.1320 C.ar      1 <0>        -0.0754
     18 C12         6.5607    2.2997    2.8680 C.ar      1 <0>        -0.1272
     19 Br1         5.7738    1.1304    4.1287 Br        1 <0>        -0.0594
     20 F2          9.5606    4.3034    2.4734 F         1 <0>        -0.1575
     21 H1         -0.9594    1.9046    0.0260 H         1 <0>         0.1443
     22 H2          1.1542    3.1666    0.0077 H         1 <0>         0.1548
     23 H3         -0.9258   -0.5566    0.0083 H         1 <0>         0.1454
     24 H4          5.9780    3.6574   -0.1761 H         1 <0>         0.1137
     25 H5          8.1604    4.6880    0.3055 H         1 <0>         0.1224
     26 H6          8.2990    2.6592    4.0586 H         1 <0>         0.1280
@<TRIPOS>BOND
     1    1    6 ar
     2    1    2 ar
     3    1   21 1
     4    2    3 ar
     5    2   22 1
     6    3    4 ar
     7    3    9 1
     8    4    5 ar
     9    4    8 1
    10    5    6 ar
    11    5    7 1
    12    6   23 1
    13    9   10 2
    14    9   11 2
    15    9   12 1
    16   12   13 1
    17   13   18 ar
    18   13   14 ar
    19   14   15 ar
    20   14   24 1
    21   15   16 ar
    22   15   25 1
    23   16   17 ar
    24   16   20 1
    25   17   18 ar
    26   17   26 1
    27   18   19 1
@<TRIPOS>MOLECULE
ZINC11640051
   30    32     0     0     0
SMALL
USER_CHARGES

@<TRIPOS>ATOM
      1 C1          1.0517   -0.6222    0.3067 C.ar      1 <0>        -0.1654
      2 C2          2.3014   -0.0306    0.2732 C.ar      1 <0>        -0.0652
      3 C3          2.3778    1.3463    0.0141 C.ar      1 <0>        -0.1075
      4 C4          1.1926    2.0593   -0.1984 C.ar      1 <0>         0.1168
      5 N1          0.0279    1.4477   -0.1552 N.ar      1 <0>        -0.4874
      6 C5         -0.0722    0.1540    0.0860 C.ar      1 <0>         0.0920
      7 C6          3.6796    2.0278   -0.0329 C.2       1 <0>        -0.0233
      8 C7          4.8251    1.3072    0.0465 C.2       1 <0>        -0.1785
      9 C8          6.2347    1.7662    0.1019 C.2       1 <0>         0.5324
     10 O1          6.5278    2.9506    0.0790 O.2       1 <0>        -0.5310
     11 N2          7.1503    0.8262    0.1775 N.2       1 <0>        -0.7123
     12 C9          6.8458   -0.4619    0.2036 C.2       1 <0>         0.4316
     13 S1          5.0617   -0.4640    0.1218 S.3       1 <0>        -0.1018
     14 N3          7.6946   -1.5347    0.2797 N.2       1 <0>        -0.5557
     15 C10         9.0616   -1.3311    0.4970 C.ar      1 <0>         0.1778
     16 C11         9.4991   -0.1875    1.1524 C.ar      1 <0>        -0.1344
     17 C12        10.8490    0.0109    1.3662 C.ar      1 <0>        -0.0888
     18 C13        11.7662   -0.9285    0.9280 C.ar      1 <0>        -0.0720
     19 C14        11.3340   -2.0688    0.2743 C.ar      1 <0>        -0.0901
     20 C15         9.9839   -2.2756    0.0626 C.ar      1 <0>        -0.0476
     21 Cl1         9.4414   -3.7098   -0.7513 Cl        1 <0>        -0.0677
     22 Cl2        13.4622   -0.6752    1.1987 Cl        1 <0>        -0.0889
     23 H1          0.9544   -1.6806    0.4988 H         1 <0>         0.1373
     24 H2          3.1950   -0.6131    0.4423 H         1 <0>         0.1500
     25 H3          1.2338    3.1197   -0.3991 H         1 <0>         0.1606
     26 H4         -1.0486   -0.3067    0.1119 H         1 <0>         0.1547
     27 H5          3.7233    3.1025   -0.1305 H         1 <0>         0.1521
     28 H6          8.7843    0.5463    1.4944 H         1 <0>         0.1532
     29 H7         11.1894    0.9003    1.8755 H         1 <0>         0.1262
     30 H8         12.0519   -2.7999   -0.0672 H         1 <0>         0.1329
@<TRIPOS>BOND
     1    1    6 ar
     2    1    2 ar
     3    1   23 1
     4    2    3 ar
     5    2   24 1
     6    3    4 ar
     7    3    7 1
     8    4    5 ar
     9    4   25 1
    10    5    6 ar
    11    6   26 1
    12    7    8 2
    13    7   27 1
    14    8   13 1
    15    8    9 1
    16    9   10 2
    17    9   11 1
    18   11   12 2
    19   12   13 1
    20   12   14 1
    21   14   15 1
    22   15   20 ar
    23   15   16 ar
    24   16   17 ar
    25   16   28 1
    26   17   18 ar
    27   17   29 1
    28   18   19 ar
    29   18   22 1
    30   19   20 ar
    31   19   30 1
    32   20   21 1
@<TRIPOS>MOLECULE
ZINC13448031
   42    45     0     0     0
SMALL
USER_CHARGES
1-[(5R)-5-methyl4,5,6,7-tetrahydrobenzothiophene-2-carbonyl]indoline-5-carboxylic acid
@<TRIPOS>ATOM
      1 C1         -6.4707    5.7403    1.0380 C.3       1 <0>        -0.1478
      2 C2         -5.1669    4.9398    1.0530 C.3       1 <0>        -0.0928
      3 H1         -4.7963    4.8708    2.0758 H         1 <0>         0.0732
      4 C3         -4.1256    5.6476    0.1816 C.3       1 <0>        -0.1093
      5 C4         -2.7569    4.9932    0.4181 C.3       1 <0>        -0.0428
      6 C5         -2.9227    3.5073    0.3321 C.2       1 <0>        -0.1726
      7 C6         -4.0942    2.8058    0.3692 C.2       1 <0>        -0.1385
      8 C7         -3.9997    1.4277    0.2641 C.2       1 <0>        -0.0637
      9 C8         -2.7415    0.8668    0.1428 C.2       1 <0>        -0.2323
     10 S1         -1.6941    2.3119    0.1646 S.3       1 <0>         0.1539
     11 C9         -2.3666   -0.5445    0.0217 C.2       1 <0>         0.6078
     12 O1         -3.2297   -1.3977   -0.0696 O.2       1 <0>        -0.5055
     13 N1         -1.0660   -0.8978    0.0113 N.am      1 <0>        -0.5420
     14 C10         0.0579    0.0419    0.0077 C.3       1 <0>         0.0927
     15 C11         1.3192   -0.8372   -0.0037 C.3       1 <0>        -0.0762
     16 C12         0.7922   -2.2549   -0.0056 C.ar      1 <0>        -0.1516
     17 C13        -0.5965   -2.2087    0.0034 C.ar      1 <0>         0.1290
     18 C14        -1.3207   -3.4063    0.0032 C.ar      1 <0>        -0.1409
     19 C15        -0.6683   -4.6152   -0.0060 C.ar      1 <0>        -0.0529
     20 C16         0.7290   -4.6573   -0.0146 C.ar      1 <0>        -0.1254
     21 C17         1.4540   -3.4620   -0.0148 C.ar      1 <0>        -0.0464
     22 C18         1.4329   -5.9528   -0.0240 C.2       1 <0>         0.4922
     23 O2          2.6476   -5.9842   -0.0321 O.co2     1 <0>        -0.6330
     24 C19        -5.4285    3.5331    0.5139 C.3       1 <0>        -0.0527
     25 H2         -6.8407    5.8129    0.0153 H         1 <0>         0.0559
     26 H3         -7.2129    5.2375    1.6580 H         1 <0>         0.0563
     27 H4         -6.2874    6.7407    1.4300 H         1 <0>         0.0564
     28 H5         -4.0782    6.7023    0.4527 H         1 <0>         0.0736
     29 H6         -4.3996    5.5524   -0.8691 H         1 <0>         0.0686
     30 H7         -2.3861    5.2646    1.4065 H         1 <0>         0.0861
     31 H8         -2.0530    5.3288   -0.3435 H         1 <0>         0.0840
     32 H9         -4.8842    0.8082    0.2795 H         1 <0>         0.1444
     33 H10         0.0249    0.6672   -0.8845 H         1 <0>         0.0843
     34 H11         0.0364    0.6606    0.9048 H         1 <0>         0.0845
     35 H12         1.9065   -0.6483   -0.9023 H         1 <0>         0.0909
     36 H13         1.9191   -0.6535    0.8876 H         1 <0>         0.0909
     37 H14        -2.4003   -3.3799    0.0148 H         1 <0>         0.1343
     38 H15        -1.2356   -5.5342   -0.0058 H         1 <0>         0.1380
     39 H16         2.5337   -3.4855   -0.0218 H         1 <0>         0.1315
     40 H17        -6.0679    2.9886    1.2087 H         1 <0>         0.0756
     41 H18        -5.9180    3.5994   -0.4578 H         1 <0>         0.0762
     42 O3          0.7292   -7.1020   -0.0238 O.co2     1 <0>        -0.7538
@<TRIPOS>BOND
     1    1    2 1
     2    1   25 1
     3    1   26 1
     4    1   27 1
     5    2    3 1
     6    2   24 1
     7    2    4 1
     8    4    5 1
     9    4   28 1
    10    4   29 1
    11    5    6 1
    12    5   30 1
    13    5   31 1
    14    6   10 1
    15    6    7 2
    16    7    8 1
    17    7   24 1
    18    8    9 2
    19    8   32 1
    20    9   10 1
    21    9   11 1
    22   11   12 2
    23   11   13 am
    24   13   17 1
    25   13   14 1
    26   14   15 1
    27   14   33 1
    28   14   34 1
    29   15   16 1
    30   15   35 1
    31   15   36 1
    32   16   21 ar
    33   16   17 ar
    34   17   18 ar
    35   18   19 ar
    36   18   37 1
    37   19   20 ar
    38   19   38 1
    39   20   21 ar
    40   20   22 1
    41   21   39 1
    42   22   23 2
    43   22   42 1
    44   24   40 1
    45   24   41 1
@<TRIPOS>MOLECULE
ZINC33297688
   39    41     0     0     0
SMALL
USER_CHARGES
4-(4,5-dimethylthiazol-2-yl)-N-(2-methylsulfanylphenyl)thiophene-2-sulfonamide
@<TRIPOS>ATOM
      1 C1          3.2026    4.8958    8.1273 C.3       1 <0>        -0.0808
      2 C2          3.1586    3.9291    6.9721 C.2       1 <0>         0.0523
      3 C3          3.6882    2.6862    7.1054 C.2       1 <0>        -0.1875
      4 S1          3.3544    2.0086    5.4844 S.3       1 <0>         0.0089
      5 C4          2.5552    3.4558    4.8033 C.2       1 <0>         0.1892
      6 N1          2.6070    4.2879    5.8344 N.2       1 <0>        -0.5050
      7 C5          1.9849    3.6657    3.4562 C.2       1 <0>        -0.0796
      8 C6          2.0283    2.6556    2.4973 C.2       1 <0>        -0.0369
      9 C7          1.4964    2.8863    1.2769 C.2       1 <0>        -0.6849
     10 S2          0.9103    4.5650    1.4286 S.3       1 <0>         0.1811
     11 C8          1.4011    4.8579    3.1196 C.2       1 <0>        -0.1220
     12 S3          1.4103    1.8069   -0.1132 S.o2      1 <0>         2.5998
     13 O1          2.4575    0.8592    0.0431 O.2       1 <0>        -0.9837
     14 O2          1.2966    2.6340   -1.2631 O.2       1 <0>        -1.0267
     15 N2         -0.0111    0.9658    0.0074 N.2       1 <0>        -1.0350
     16 C9         -1.2318    1.6514    0.0136 C.ar      1 <0>         0.2513
     17 C10        -1.3924    2.7924   -0.7574 C.ar      1 <0>        -0.2213
     18 C11        -2.6006    3.4650   -0.7538 C.ar      1 <0>        -0.0904
     19 C12        -3.6481    3.0093    0.0253 C.ar      1 <0>        -0.1786
     20 C13        -3.4953    1.8757    0.8017 C.ar      1 <0>        -0.1108
     21 C14        -2.2885    1.1916    0.8002 C.ar      1 <0>        -0.1280
     22 S4         -2.0904   -0.2532    1.7892 S.3       1 <0>        -0.0813
     23 C15        -3.6966   -0.4468    2.6098 C.3       1 <0>        -0.1669
     24 C16         4.3648    2.0511    8.2928 C.3       1 <0>        -0.0605
     25 H1          3.6986    4.4191    8.9856 H         1 <0>         0.0719
     26 H2          2.1773    5.1794    8.4074 H         1 <0>         0.0721
     27 H3          3.7640    5.7945    7.8321 H         1 <0>         0.0716
     28 H4          2.4810    1.7021    2.7263 H         1 <0>         0.1437
     29 H5          1.2751    5.7468    3.7199 H         1 <0>         0.1959
     30 H6         -0.5751    3.1536   -1.3640 H         1 <0>         0.1495
     31 H7         -2.7251    4.3515   -1.3580 H         1 <0>         0.1070
     32 H8         -4.5883    3.5407    0.0275 H         1 <0>         0.1051
     33 H9         -4.3154    1.5230    1.4096 H         1 <0>         0.1062
     34 H10        -3.6722   -1.3347    3.2586 H         1 <0>         0.0958
     35 H11        -4.4837   -0.5686    1.8510 H         1 <0>         0.0722
     36 H12        -3.9079    0.4456    3.2173 H         1 <0>         0.0707
     37 H13         4.6689    1.0255    8.0363 H         1 <0>         0.0742
     38 H14         3.6663    2.0249    9.1421 H         1 <0>         0.0808
     39 H15         5.2531    2.6393    8.5666 H         1 <0>         0.0805
@<TRIPOS>BOND
     1    1    2 1
     2    1   25 1
     3    1   26 1
     4    1   27 1
     5    2    6 1
     6    2    3 2
     7    3    4 1
     8    3   24 1
     9    4    5 1
    10    5    6 2
    11    5    7 1
    12    7   11 2
    13    7    8 1
    14    8    9 2
    15    8   28 1
    16    9   10 1
    17    9   12 1
    18   10   11 1
    19   11   29 1
    20   12   13 2
    21   12   14 2
    22   12   15 1
    23   15   16 1
    24   16   21 ar
    25   16   17 ar
    26   17   18 ar
    27   17   30 1
    28   18   19 ar
    29   18   31 1
    30   19   20 ar
    31   19   32 1
    32   20   21 ar
    33   20   33 1
    34   21   22 1
    35   22   23 1
    36   23   34 1
    37   23   35 1
    38   23   36 1
    39   24   37 1
    40   24   38 1
    41   24   39 1
@<TRIPOS>MOLECULE
ZINC39951821
   32    33     0     0     0
SMALL
USER_CHARGES

@<TRIPOS>ATOM
      1 C1         -0.0187    1.5258    0.0104 C.3       1 <0>        -0.1440
      2 C2          0.0021   -0.0041    0.0020 C.3       1 <0>        -0.1201
      3 H1         -1.0203   -0.3818    0.0098 H         1 <0>         0.0861
      4 C3          0.7197   -0.4983   -1.2561 C.3       1 <0>        -0.1028
      5 C4          0.7122   -2.0284   -1.2819 C.3       1 <0>        -0.1465
      6 C5          1.4632   -2.5595   -0.0568 C.3       1 <0>         0.1483
      7 N1          0.8694   -1.9734    1.1526 N.pl3     1 <0>        -0.6716
      8 C6          0.7443   -0.5122    1.2421 C.3       1 <0>         0.1539
      9 C7          0.4337   -2.7856    2.1922 C.ar      1 <0>         0.1871
     10 C8          1.3079   -3.1249    3.2218 C.ar      1 <0>        -0.1376
     11 C9          0.8862   -3.9227    4.2464 C.ar      1 <0>        -0.0634
     12 C10        -0.4284   -4.4029    4.2654 C.ar      1 <0>        -0.1309
     13 C11        -1.3090   -4.0634    3.2317 C.ar      1 <0>        -0.0496
     14 C12        -0.8785   -3.2541    2.2051 C.ar      1 <0>        -0.1166
     15 I1         -2.1927   -2.7336    0.6588 I         1 <0>        -0.0615
     16 C13        -0.8834   -5.2631    5.3691 C.2       1 <0>         0.5204
     17 O1         -0.1123   -5.5593    6.2717 O.co2     1 <0>        -0.6848
     18 O2         -2.0328   -5.6821    5.3842 O.co2     1 <0>        -0.6839
     19 H2          1.0039    1.9031    0.0027 H         1 <0>         0.0515
     20 H3         -0.5459    1.8868   -0.8726 H         1 <0>         0.0528
     21 H4         -0.5289    1.8773    0.9072 H         1 <0>         0.0536
     22 H5          0.2072   -0.1177   -2.1396 H         1 <0>         0.0554
     23 H6          1.7492   -0.1402   -1.2513 H         1 <0>         0.0557
     24 H7         -0.3167   -2.3876   -1.2618 H         1 <0>         0.0774
     25 H8          1.2029   -2.3794   -2.1897 H         1 <0>         0.0614
     26 H9          1.3762   -3.6453   -0.0173 H         1 <0>         0.0657
     27 H10         2.5140   -2.2771   -0.1216 H         1 <0>         0.0461
     28 H11         1.7365   -0.0628    1.2837 H         1 <0>         0.0461
     29 H12         0.1830   -0.2472    2.1380 H         1 <0>         0.0653
     30 H13         2.3229   -2.7560    3.2095 H         1 <0>         0.1211
     31 H14         1.5675   -4.1836    5.0427 H         1 <0>         0.1321
     32 H15        -2.3241   -4.4318    3.2419 H         1 <0>         0.1332
@<TRIPOS>BOND
     1    1    2 1
     2    1   19 1
     3    1   20 1
     4    1   21 1
     5    2    3 1
     6    2    8 1
     7    2    4 1
     8    4    5 1
     9    4   22 1
    10    4   23 1
    11    5    6 1
    12    5   24 1
    13    5   25 1
    14    6    7 1
    15    6   26 1
    16    6   27 1
    17    7    8 1
    18    7    9 1
    19    8   28 1
    20    8   29 1
    21    9   14 ar
    22    9   10 ar
    23   10   11 ar
    24   10   30 1
    25   11   12 ar
    26   11   31 1
    27   12   13 ar
    28   12   16 1
    29   13   14 ar
    30   13   32 1
    31   14   15 1
    32   16   17 2
    33   16   18 1
@<TRIPOS>MOLECULE
ZINC48429971
   26    27     0     0     0
SMALL
USER_CHARGES

@<TRIPOS>ATOM
      1 C1         -0.0167    1.3783    0.0096 C.ar      1 <0>        -0.0755
      2 C2          1.1690    2.0869    0.0021 C.ar      1 <0>        -0.1675
      3 C3          2.3815    1.4094   -0.0131 C.ar      1 <0>         0.2859
      4 C4          2.3977    0.0204   -0.0206 C.ar      1 <0>        -0.2376
      5 C5          1.2082   -0.6826   -0.0131 C.ar      1 <0>        -0.0245
      6 C6          0.0021   -0.0041    0.0020 C.ar      1 <0>        -0.1993
      7 Br1         1.2284   -2.5735   -0.0233 Br        1 <0>        -0.0922
      8 N1          3.5820    2.1234   -0.0212 N.2       1 <0>        -1.0753
      9 S1          5.0266    1.3139   -0.0392 S.o2      1 <0>         2.5979
     10 O1          5.1237    0.6287    1.2018 O.2       1 <0>        -1.0244
     11 O2          5.0995    0.6411   -1.2887 O.2       1 <0>        -1.0081
     12 C7          6.3038    2.5278   -0.0456 C.ar      1 <0>        -0.6274
     13 C8          7.1673    2.6276    1.0294 C.ar      1 <0>         0.0082
     14 C9          8.1693    3.5791    1.0257 C.ar      1 <0>        -0.1762
     15 C10         8.3091    4.4333   -0.0553 C.ar      1 <0>         0.1469
     16 C11         7.4448    4.3331   -1.1319 C.ar      1 <0>        -0.1749
     17 C12         6.4455    3.3765   -1.1288 C.ar      1 <0>         0.0854
     18 Cl1         5.3648    3.2459   -2.4811 Cl        1 <0>        -0.0161
     19 F1          9.2881    5.3643   -0.0589 F         1 <0>        -0.1317
     20 H1         -0.9595    1.9047    0.0259 H         1 <0>         0.1143
     21 H2          1.1533    3.1667    0.0077 H         1 <0>         0.1184
     22 H3          3.3388   -0.5093   -0.0328 H         1 <0>         0.1073
     23 H4         -0.9265   -0.5556    0.0082 H         1 <0>         0.1120
     24 H5          7.0583    1.9618    1.8728 H         1 <0>         0.1580
     25 H6          8.8433    3.6568    1.8660 H         1 <0>         0.1464
     26 H7          7.5527    4.9991   -1.9752 H         1 <0>         0.1499
@<TRIPOS>BOND
     1    1    6 ar
     2    1    2 ar
     3    1   20 1
     4    2    3 ar
     5    2   21 1
     6    3    4 ar
     7    3    8 1
     8    4    5 ar
     9    4   22 1
    10    5    6 ar
    11    5    7 1
    12    6   23 1
    13    8    9 1
    14    9   10 2
    15    9   11 2
    16    9   12 1
    17   12   17 ar
    18   12   13 ar
    19   13   14 ar
    20   13   24 1
    21   14   15 ar
    22   14   25 1
    23   15   16 ar
    24   15   19 1
    25   16   17 ar
    26   16   26 1
    27   17   18 1
@<TRIPOS>MOLECULE
ZINC05178175
   50    53     0     0     0
SMALL
USER_CHARGES

@<TRIPOS>ATOM
      1 C1         -0.2635    0.3042   -0.4895 C.3       1 <0>        -0.1470
      2 C2         -0.0013   -1.1959   -0.3417 C.3       1 <0>        -0.0871
      3 C3          0.7305   -1.4531    0.9504 C.ar      1 <0>        -0.0625
      4 C4          2.1142   -1.4376    0.9726 C.ar      1 <0>        -0.1359
      5 C5          2.7911   -1.6724    2.1507 C.ar      1 <0>        -0.0642
      6 C6          2.0756   -1.9262    3.3253 C.ar      1 <0>        -0.1630
      7 C7          0.6775   -1.9397    3.2947 C.ar      1 <0>        -0.0657
      8 C8          0.0152   -1.6979    2.1097 C.ar      1 <0>        -0.1331
      9 C9          2.7903   -2.1783    4.5868 C.2       1 <0>         0.3856
     10 O1          4.0025   -2.1663    4.6098 O.2       1 <0>        -0.4489
     11 C10         2.0154   -2.4514    5.8502 C.3       1 <0>        -0.1411
     12 C11         2.9902   -2.6782    7.0074 C.3       1 <0>         0.0884
     13 H1          3.6874   -3.4738    6.7446 H         1 <0>         0.0581
     14 C12         3.7556   -1.4080    7.2758 C.ar      1 <0>        -0.0305
     15 C13         3.0753   -0.2313    7.5276 C.ar      1 <0>        -0.1158
     16 C14         3.7773    0.9338    7.7738 C.ar      1 <0>        -0.1314
     17 C15         5.1596    0.9221    7.7686 C.ar      1 <0>        -0.1448
     18 C16         5.8399   -0.2549    7.5177 C.ar      1 <0>        -0.1291
     19 C17         5.1379   -1.4208    7.2758 C.ar      1 <0>        -0.0955
     20 C18         2.2212   -3.0717    8.2423 C.2       1 <0>        -0.5468
     21 C19         0.8533   -2.9047    8.4217 C.2       1 <0>         0.4238
     22 O2          0.0779   -2.4163    7.6090 O.3       1 <0>        -0.5618
     23 C20         0.4916   -3.4207    9.7700 C.ar      1 <0>        -0.1254
     24 C21        -0.7003   -3.5056   10.4614 C.ar      1 <0>        -0.0921
     25 C22        -0.7212   -4.0539   11.7433 C.ar      1 <0>        -0.1276
     26 C23         0.4409   -4.5104   12.3216 C.ar      1 <0>        -0.1268
     27 C24         1.6493   -4.4282   11.6306 C.ar      1 <0>        -0.0923
     28 C25         1.6792   -3.8872   10.3609 C.ar      1 <0>        -0.1254
     29 C26         2.7702   -3.6628    9.3738 C.2       1 <0>         0.4235
     30 O3          3.9507   -3.9485    9.5325 O.2       1 <0>        -0.5522
     31 H2          0.6857    0.8399   -0.4967 H         1 <0>         0.0559
     32 H3         -0.7928    0.4902   -1.4240 H         1 <0>         0.0567
     33 H4         -0.8702    0.6511    0.3470 H         1 <0>         0.0573
     34 H5         -0.9505   -1.7317   -0.3345 H         1 <0>         0.0725
     35 H6          0.6054   -1.5429   -1.1781 H         1 <0>         0.0712
     36 H7          2.6653   -1.2415    0.0647 H         1 <0>         0.1222
     37 H8          3.8709   -1.6607    2.1664 H         1 <0>         0.1302
     38 H9          0.1180   -2.1353    4.1975 H         1 <0>         0.1400
     39 H10        -1.0646   -1.7036    2.0853 H         1 <0>         0.1249
     40 H11         1.3759   -1.5980    6.0758 H         1 <0>         0.1112
     41 H12         1.4000   -3.3406    5.7140 H         1 <0>         0.0947
     42 H13         1.9954   -0.2221    7.5316 H         1 <0>         0.1167
     43 H14         3.2458    1.8533    7.9698 H         1 <0>         0.1085
     44 H15         5.7081    1.8325    7.9603 H         1 <0>         0.1072
     45 H16         6.9198   -0.2640    7.5134 H         1 <0>         0.1087
     46 H17         5.6693   -2.3411    7.0834 H         1 <0>         0.1132
     47 H18        -1.6142   -3.1479   10.0106 H         1 <0>         0.1197
     48 H19        -1.6534   -4.1202   12.2847 H         1 <0>         0.1181
     49 H20         0.4171   -4.9338   13.3148 H         1 <0>         0.1182
     50 H21         2.5597   -4.7868   12.0877 H         1 <0>         0.1193
@<TRIPOS>BOND
     1    1    2 1
     2    1   31 1
     3    1   32 1
     4    1   33 1
     5    2    3 1
     6    2   34 1
     7    2   35 1
     8    3    8 ar
     9    3    4 ar
    10    4    5 ar
    11    4   36 1
    12    5    6 ar
    13    5   37 1
    14    6    7 ar
    15    6    9 1
    16    7    8 ar
    17    7   38 1
    18    8   39 1
    19    9   10 2
    20    9   11 1
    21   11   12 1
    22   11   40 1
    23   11   41 1
    24   12   13 1
    25   12   14 1
    26   12   20 1
    27   14   19 ar
    28   14   15 ar
    29   15   16 ar
    30   15   42 1
    31   16   17 ar
    32   16   43 1
    33   17   18 ar
    34   17   44 1
    35   18   19 ar
    36   18   45 1
    37   19   46 1
    38   20   29 1
    39   20   21 2
    40   21   22 1
    41   21   23 1
    42   23   28 ar
    43   23   24 ar
    44   24   25 ar
    45   24   47 1
    46   25   26 ar
    47   25   48 1
    48   26   27 ar
    49   26   49 1
    50   27   28 ar
    51   27   50 1
    52   28   29 1
    53   29   30 2
@<TRIPOS>MOLECULE
ZINC64769285
   35    37     0     0     0
SMALL
USER_CHARGES

@<TRIPOS>ATOM
      1 C1         -0.0187    1.5258    0.0104 C.3       1 <0>        -0.1458
      2 C2          0.0021   -0.0041    0.0020 C.3       1 <0>        -0.0523
      3 C3         -1.4117   -0.5257    0.0127 C.2       1 <0>         0.0660
      4 C4         -1.8240   -1.3928   -0.9486 C.2       1 <0>        -0.2085
      5 S1         -3.5205   -1.6590   -0.4493 S.3       1 <0>         0.0323
      6 C5         -3.4970   -0.5887    0.9828 C.2       1 <0>         0.2001
      7 N1         -2.2449   -0.1469    0.9542 N.2       1 <0>        -0.4894
      8 C6         -4.5735   -0.2833    1.9383 C.2       1 <0>        -0.1019
      9 C7         -5.8628   -0.7522    1.9673 C.2       1 <0>        -0.1332
     10 C8         -6.7002   -0.3207    2.9705 C.2       1 <0>        -0.0474
     11 C9         -6.2279    0.5525    3.8980 C.2       1 <0>        -0.6641
     12 S2         -4.5401    0.7878    3.3664 S.3       1 <0>         0.2497
     13 S3         -7.0647    1.2651    5.2753 S.o2      1 <0>         2.6306
     14 O1         -6.3834    2.4735    5.5835 O.2       1 <0>        -1.0163
     15 O2         -8.4521    1.2293    4.9705 O.2       1 <0>        -1.0145
     16 N2         -6.8370    0.2512    6.5646 N.2       1 <0>        -1.0832
     17 C10        -7.3937    0.5649    7.8066 C.ar      1 <0>         0.2894
     18 C11        -8.1436    1.7244    7.9604 C.ar      1 <0>        -0.2612
     19 C12        -8.6934    2.0320    9.1893 C.ar      1 <0>        -0.0542
     20 C13        -8.4981    1.1878   10.2670 C.ar      1 <0>        -0.2168
     21 C14        -7.7517    0.0320   10.1178 C.ar      1 <0>         0.0148
     22 C15        -7.2036   -0.2843    8.8888 C.ar      1 <0>        -0.1728
     23 Cl1        -7.5087   -1.0245   11.4737 Cl        1 <0>        -0.1050
     24 H1          1.0039    1.9031    0.0027 H         1 <0>         0.0582
     25 H2         -0.5459    1.8868   -0.8726 H         1 <0>         0.0512
     26 H3         -0.5289    1.8773    0.9072 H         1 <0>         0.0662
     27 H4          0.5123   -0.3556   -0.8948 H         1 <0>         0.0781
     28 H5          0.5293   -0.3651    0.8851 H         1 <0>         0.0802
     29 H6         -1.2782   -1.8067   -1.7836 H         1 <0>         0.1998
     30 H7         -6.2135   -1.4458    1.2174 H         1 <0>         0.1432
     31 H8         -7.7204   -0.6717    3.0197 H         1 <0>         0.1533
     32 H9         -8.2962    2.3848    7.1196 H         1 <0>         0.1026
     33 H10        -9.2763    2.9332    9.3089 H         1 <0>         0.1134
     34 H11        -8.9286    1.4311   11.2271 H         1 <0>         0.1136
     35 H12        -6.6250   -1.1886    8.7714 H         1 <0>         0.1241
@<TRIPOS>BOND
     1    1    2 1
     2    1   24 1
     3    1   25 1
     4    1   26 1
     5    2    3 1
     6    2   27 1
     7    2   28 1
     8    3    7 1
     9    3    4 2
    10    4    5 1
    11    4   29 1
    12    5    6 1
    13    6    7 2
    14    6    8 1
    15    8   12 1
    16    8    9 2
    17    9   10 1
    18    9   30 1
    19   10   11 2
    20   10   31 1
    21   11   12 1
    22   11   13 1
    23   13   14 2
    24   13   15 2
    25   13   16 1
    26   16   17 1
    27   17   22 ar
    28   17   18 ar
    29   18   19 ar
    30   18   32 1
    31   19   20 ar
    32   19   33 1
    33   20   21 ar
    34   20   34 1
    35   21   22 ar
    36   21   23 1
    37   22   35 1
@<TRIPOS>MOLECULE
ZINC06256558
   36    39     0     0     0
SMALL
USER_CHARGES
isopropylsulfanylBLAHthiol
@<TRIPOS>ATOM
      1 C1        -10.0889    0.5551    3.3412 C.3       1 <0>        -0.1343
      2 C2         -8.6630    0.5585    2.7866 C.3       1 <0>        -0.1476
      3 C3         -7.8401   -0.5233    3.4889 C.3       1 <0>        -0.1483
      4 S1         -8.7064    0.2243    1.0083 S.3       1 <0>         0.1520
      5 C4         -7.0014    0.4330    0.6160 C.2       1 <0>         0.3742
      6 N1         -6.1552    0.7477    1.5691 N.2       1 <0>        -0.4874
      7 C5         -4.8556    0.9188    1.3369 C.2       1 <0>         0.0727
      8 C6         -4.2971    0.7747    0.0594 C.2       1 <0>        -0.1010
      9 C7         -2.8564    0.9937   -0.0395 C.2       1 <0>        -0.0586
     10 C8         -2.2051    1.3124    1.1008 C.2       1 <0>        -0.1747
     11 S2         -3.4602    1.3366    2.3519 S.3       1 <0>         0.1116
     12 C9         -0.7376    1.5841    1.2666 C.3       1 <0>        -0.0315
     13 C10        -0.0127    1.0858    0.0080 C.3       1 <0>        -0.1139
     14 C11        -0.7595    1.5961   -1.2278 C.3       1 <0>        -0.1192
     15 C12        -2.1007    0.8738   -1.3601 C.3       1 <0>        -0.0622
     16 C13        -5.2561    0.4199   -1.0094 C.2       1 <0>         0.1942
     17 N2         -6.5841    0.2634   -0.6774 N.pl3     1 <0>        -0.4463
     18 C14        -7.2164   -0.0562   -1.8482 C.2       1 <0>         0.3544
     19 N3         -6.3016   -0.0794   -2.7895 N.2       1 <0>        -0.3075
     20 N4         -5.1453    0.2006   -2.2963 N.2       1 <0>        -0.2754
     21 S3         -8.9370   -0.3755   -2.0540 S.3       1 <0>        -0.7246
     22 H1        -10.6806    1.3329    2.8363 H         1 <0>         0.0630
     23 H2        -10.0624    0.7583    4.4220 H         1 <0>         0.0668
     24 H3        -10.5488   -0.4283    3.1641 H         1 <0>         0.0607
     25 H4         -8.2306    1.5079    3.1354 H         1 <0>         0.0976
     26 H5         -6.8149   -0.5209    3.0902 H         1 <0>         0.0754
     27 H6         -8.3001   -1.5067    3.3118 H         1 <0>         0.0540
     28 H7         -7.8137   -0.3201    4.5696 H         1 <0>         0.0538
     29 H8         -0.5768    2.6650    1.3927 H         1 <0>         0.0818
     30 H9         -0.3641    1.0519    2.1539 H         1 <0>         0.0801
     31 H10         1.0189    1.4677    0.0036 H         1 <0>         0.0714
     32 H11         0.0035   -0.0141    0.0054 H         1 <0>         0.0686
     33 H12        -0.9377    2.6770   -1.1281 H         1 <0>         0.0650
     34 H13        -0.1545    1.4056   -2.1265 H         1 <0>         0.0693
     35 H14        -1.9309   -0.1884   -1.5902 H         1 <0>         0.0787
     36 H15        -2.6936    1.3331   -2.1648 H         1 <0>         0.0870
@<TRIPOS>BOND
     1    1    2 1
     2    1   22 1
     3    1   23 1
     4    1   24 1
     5    2    3 1
     6    2    4 1
     7    2   25 1
     8    3   26 1
     9    3   27 1
    10    3   28 1
    11    4    5 1
    12    5   17 1
    13    5    6 2
    14    6    7 1
    15    7   11 1
    16    7    8 2
    17    8    9 1
    18    8   16 1
    19    9   15 1
    20    9   10 2
    21   10   11 1
    22   10   12 1
    23   12   13 1
    24   12   29 1
    25   12   30 1
    26   13   14 1
    27   13   31 1
    28   13   32 1
    29   14   15 1
    30   14   33 1
    31   14   34 1
    32   15   35 1
    33   15   36 1
    34   16   20 2
    35   16   17 1
    36   17   18 1
    37   18   19 2
    38   18   21 1
    39   19   20 1
@<TRIPOS>MOLECULE
ZINC35357029
   34    35     0     0     0
SMALL
USER_CHARGES

@<TRIPOS>ATOM
      1 C1         -0.2212    1.4815   -0.4579 C.3       1 <0>        -0.0955
      2 C2         -0.1483   -0.0185   -0.3332 C.ar      1 <0>        -0.1515
      3 C3         -0.2237   -0.8093   -1.4652 C.ar      1 <0>        -0.1076
      4 C4         -0.1573   -2.1843   -1.3545 C.ar      1 <0>        -0.1544
      5 C5         -0.0146   -2.7728   -0.1043 C.ar      1 <0>         0.2428
      6 C6          0.0608   -1.9755    1.0307 C.ar      1 <0>        -0.1210
      7 C7         -0.0006   -0.6009    0.9123 C.ar      1 <0>        -0.1118
      8 C8          0.2151   -2.6095    2.3891 C.3       1 <0>        -0.0923
      9 N1          0.0525   -4.1631    0.0113 N.2       1 <0>        -1.1218
     10 S1          1.3614   -4.9816   -0.5879 S.o2      1 <0>         2.6238
     11 O1          1.3349   -4.8131   -1.9986 O.2       1 <0>        -1.0140
     12 O2          2.4773   -4.5987    0.2043 O.2       1 <0>        -1.0199
     13 C9          1.0898   -6.6952   -0.2802 C.2       1 <0>        -0.7134
     14 C10         1.8728   -7.7632   -0.5760 C.2       1 <0>         0.1655
     15 N2          1.4202   -8.9517   -0.2266 N.2       1 <0>        -0.5230
     16 C11         0.2659   -9.0898    0.3788 C.2       1 <0>         0.0521
     17 S2         -0.2883   -7.5064    0.5141 S.3       1 <0>         0.3201
     18 Cl1        -0.5019  -10.5509    0.9167 Cl        1 <0>         0.0456
     19 C12         3.1990   -7.5989   -1.2726 C.3       1 <0>        -0.1004
     20 C13        -0.2400   -3.0453   -2.5885 C.3       1 <0>        -0.0930
     21 H1          0.7830    1.8844   -0.5899 H         1 <0>         0.0534
     22 H2         -0.8346    1.7452   -1.3195 H         1 <0>         0.0527
     23 H3         -0.6647    1.9001    0.4455 H         1 <0>         0.0528
     24 H4         -0.3350   -0.3511   -2.4368 H         1 <0>         0.1015
     25 H5          0.0624    0.0198    1.7939 H         1 <0>         0.1026
     26 H6          1.2712   -2.6425    2.6568 H         1 <0>         0.0520
     27 H7         -0.3289   -2.0216    3.1284 H         1 <0>         0.0408
     28 H8         -0.1854   -3.6229    2.3646 H         1 <0>         0.0759
     29 H9          3.9860   -7.4690   -0.5297 H         1 <0>         0.0894
     30 H10         3.4073   -8.4856   -1.8713 H         1 <0>         0.0857
     31 H11         3.1630   -6.7232   -1.9207 H         1 <0>         0.0831
     32 H12         0.7491   -3.1316   -3.0383 H         1 <0>         0.0726
     33 H13        -0.6030   -4.0364   -2.3164 H         1 <0>         0.0739
     34 H14        -0.9258   -2.5907   -3.3034 H         1 <0>         0.0332
@<TRIPOS>BOND
     1    1    2 1
     2    1   21 1
     3    1   22 1
     4    1   23 1
     5    2    7 ar
     6    2    3 ar
     7    3    4 ar
     8    3   24 1
     9    4    5 ar
    10    4   20 1
    11    5    6 ar
    12    5    9 1
    13    6    7 ar
    14    6    8 1
    15    7   25 1
    16    8   26 1
    17    8   27 1
    18    8   28 1
    19    9   10 1
    20   10   11 2
    21   10   12 2
    22   10   13 1
    23   13   17 1
    24   13   14 2
    25   14   15 1
    26   14   19 1
    27   15   16 2
    28   16   17 1
    29   16   18 1
    30   19   29 1
    31   19   30 1
    32   19   31 1
    33   20   32 1
    34   20   33 1
    35   20   34 1
@<TRIPOS>MOLECULE
ZINC06855474
   31    32     0     0     0
SMALL
USER_CHARGES

@<TRIPOS>ATOM
      1 C1          0.4710    0.7283   -0.8920 C.3       1 <0>        -0.1288
      2 C2          1.2638    0.4862   -2.1780 C.3       1 <0>        -0.0695
      3 C3          0.7403    1.4082   -3.2811 C.3       1 <0>        -0.1018
      4 C4          2.7443    0.7803   -1.9274 C.3       1 <0>        -0.1085
      5 C5          1.1022   -0.9499   -2.6049 C.2       1 <0>         0.4877
      6 O1          0.3400   -1.6748   -2.0104 O.2       1 <0>        -0.3900
      7 N1          1.8078   -1.4258   -3.6500 N.am      1 <0>        -0.4841
      8 C6          2.5723   -0.5730   -4.3933 C.2       1 <0>         0.4971
      9 O2          2.6320    0.7369   -4.0975 O.3       1 <0>        -0.5385
     10 C7          3.2958   -1.1026   -5.4767 C.ar      1 <0>        -0.2353
     11 C8          4.1053   -0.2950   -6.2902 C.ar      1 <0>         0.0155
     12 C9          4.7877   -0.8572   -7.3291 C.ar      1 <0>        -0.1036
     13 C10         4.6912   -2.2222   -7.5935 C.ar      1 <0>        -0.0353
     14 C11         3.9134   -3.0357   -6.8224 C.ar      1 <0>        -0.0554
     15 C12         3.1970   -2.4943   -5.7448 C.ar      1 <0>         0.2413
     16 N2          2.4223   -3.2593   -4.9623 N.2       1 <0>        -0.5406
     17 C13         1.7559   -2.7355   -3.9460 C.2       1 <0>         0.4782
     18 S1          0.7874   -3.7625   -2.9774 S.2       1 <0>        -0.5957
     19 Cl1         3.8102   -4.7327   -7.1737 Cl        1 <0>        -0.0446
     20 Cl2         5.7893    0.1413   -8.3358 Cl        1 <0>        -0.0748
     21 H1         -0.5837    0.5189   -1.0705 H         1 <0>         0.0598
     22 H2          0.8440    0.0715   -0.1062 H         1 <0>         0.0574
     23 H3          0.5879    1.7671   -0.5832 H         1 <0>         0.0610
     24 H4          1.3154    2.3342   -3.2840 H         1 <0>         0.0666
     25 H5          0.8429    0.9137   -4.2470 H         1 <0>         0.0650
     26 H6         -0.3103    1.6336   -3.0980 H         1 <0>         0.0291
     27 H7          2.9767    0.6053   -0.8770 H         1 <0>         0.0290
     28 H8          3.3550    0.1253   -2.5488 H         1 <0>         0.0616
     29 H9          2.9557    1.8198   -2.1781 H         1 <0>         0.0673
     30 H10         4.1873    0.7641   -6.0954 H         1 <0>         0.1469
     31 H11         5.2410   -2.6427   -8.4225 H         1 <0>         0.1427
@<TRIPOS>BOND
     1    1    2 1
     2    1   21 1
     3    1   22 1
     4    1   23 1
     5    2    3 1
     6    2    4 1
     7    2    5 1
     8    3   24 1
     9    3   25 1
    10    3   26 1
    11    4   27 1
    12    4   28 1
    13    4   29 1
    14    5    6 2
    15    5    7 am
    16    7   17 1
    17    7    8 1
    18    8    9 1
    19    8   10 2
    20   10   15 ar
    21   10   11 ar
    22   11   12 ar
    23   11   30 1
    24   12   13 ar
    25   12   20 1
    26   13   14 ar
    27   13   31 1
    28   14   15 ar
    29   14   19 1
    30   15   16 2
    31   16   17 1
    32   17   18 2
@<TRIPOS>MOLECULE
ZINC48499535
   25    26     0     0     0
SMALL
USER_CHARGES

@<TRIPOS>ATOM
      1 C1         -0.0167    1.3791    0.0096 C.ar      1 <0>        -0.0587
      2 C2          1.1708    2.0864    0.0021 C.ar      1 <0>        -0.1241
      3 C3          2.3780    1.4112   -0.0130 C.ar      1 <0>         0.0619
      4 C4          2.3968    0.0275   -0.0206 C.ar      1 <0>        -0.6196
      5 C5          1.2097   -0.6796   -0.0130 C.ar      1 <0>        -0.0066
      6 C6          0.0021   -0.0041    0.0020 C.ar      1 <0>        -0.0582
      7 Cl1        -1.4894   -0.8924    0.0120 Cl        1 <0>        -0.0632
      8 S1          3.9344   -0.8326   -0.0404 S.o2      1 <0>         2.6521
      9 O1          4.7364   -0.2545    0.9803 O.2       1 <0>        -0.9800
     10 O2          3.6240   -2.2189   -0.0718 O.2       1 <0>        -0.9958
     11 N1          4.6739   -0.4805   -1.4797 N.2       1 <0>        -1.0503
     12 C7          5.8413   -0.9936   -1.7561 C.2       1 <0>         0.5632
     13 O3          6.4479   -1.8135   -0.8665 O.3       1 <0>        -0.6911
     14 C8          6.4973   -0.6812   -3.0328 C.2       1 <0>        -0.1183
     15 C9          7.7176   -1.1202   -3.5168 C.2       1 <0>        -0.1175
     16 C10         8.0713   -0.6517   -4.7616 C.2       1 <0>        -0.1567
     17 C11         7.2267    0.1848   -5.4141 C.2       1 <0>        -0.2124
     18 S2          5.9254    0.3556   -4.3654 S.3       1 <0>         0.2645
     19 Cl2         7.4381    0.9073   -6.9783 Cl        1 <0>        -0.0056
     20 Cl3         3.8695    2.2995   -0.0231 Cl        1 <0>        -0.0228
     21 H1         -0.9591    1.9063    0.0259 H         1 <0>         0.1458
     22 H2          1.1562    3.1663    0.0076 H         1 <0>         0.1485
     23 H3          1.2243   -1.7594   -0.0193 H         1 <0>         0.1587
     24 H4          8.3522   -1.7879   -2.9531 H         1 <0>         0.1522
     25 H5          9.0079   -0.9456   -5.2119 H         1 <0>         0.1341
@<TRIPOS>BOND
     1    1    6 ar
     2    1    2 ar
     3    1   21 1
     4    2    3 ar
     5    2   22 1
     6    3    4 ar
     7    3   20 1
     8    4    5 ar
     9    4    8 1
    10    5    6 ar
    11    5   23 1
    12    6    7 1
    13    8    9 2
    14    8   10 2
    15    8   11 1
    16   11   12 2
    17   12   13 1
    18   12   14 1
    19   14   18 1
    20   14   15 2
    21   15   16 1
    22   15   24 1
    23   16   17 2
    24   16   25 1
    25   17   18 1
    26   17   19 1
@<TRIPOS>MOLECULE
ZINC65009922
   34    37     0     0     0
SMALL
USER_CHARGES

@<TRIPOS>ATOM
      1 C1         -0.0164    1.3567    0.0095 C.ar      1 <0>        -0.1039
      2 C2          1.1686    2.0905    0.0021 C.ar      1 <0>        -0.1311
      3 C3          2.3785    1.4675   -0.0131 C.ar      1 <0>        -0.0868
      4 C4          2.4375    0.0634   -0.0211 C.ar      1 <0>        -0.0780
      5 C5          3.6681   -0.6153   -0.0364 C.ar      1 <0>         0.0102
      6 C6          3.6865   -1.9761   -0.0434 C.ar      1 <0>        -0.6155
      7 C7          2.5015   -2.7098   -0.0357 C.ar      1 <0>        -0.0328
      8 C8          1.2917   -2.0868   -0.0209 C.ar      1 <0>        -0.1305
      9 C9          1.2327   -0.6827   -0.0133 C.ar      1 <0>        -0.0178
     10 C10         0.0021   -0.0041    0.0020 C.ar      1 <0>        -0.1180
     11 S1          5.2315   -2.8230   -0.0631 S.o2      1 <0>         2.6005
     12 O1          4.9835   -4.1075   -0.6179 O.2       1 <0>        -1.0012
     13 O2          6.1807   -1.9234   -0.6189 O.2       1 <0>        -1.0034
     14 N1          5.6766   -3.0663    1.5133 N.2       1 <0>        -1.0025
     15 C11         6.8645   -3.7173    1.8053 C.2       1 <0>         0.2148
     16 C12         7.3990   -4.0162    3.0709 C.ar      1 <0>        -0.2640
     17 C13         6.8481   -3.7210    4.3460 C.ar      1 <0>         0.0195
     18 C14         7.5045   -4.0854    5.4727 C.ar      1 <0>        -0.2271
     19 C15         8.7277   -4.7548    5.4163 C.ar      1 <0>        -0.0594
     20 C16         9.3097   -5.0675    4.2367 C.ar      1 <0>        -0.1479
     21 C17         8.6780   -4.7161    3.0074 C.ar      1 <0>         0.1715
     22 N2          9.1297   -4.9573    1.7770 N.2       1 <0>        -0.5547
     23 S2          7.9898   -4.3353    0.7336 S.3       1 <0>         0.1805
     24 H1         -0.9633    1.8757    0.0259 H         1 <0>         0.1232
     25 H2          1.1260    3.1696    0.0083 H         1 <0>         0.1241
     26 H3          3.2884    2.0491   -0.0194 H         1 <0>         0.1314
     27 H4          4.5943   -0.0599   -0.0428 H         1 <0>         0.1449
     28 H5          2.5441   -3.7890   -0.0419 H         1 <0>         0.1391
     29 H6          0.3816   -2.6684   -0.0154 H         1 <0>         0.1330
     30 H7         -0.9241   -0.5595    0.0082 H         1 <0>         0.1285
     31 H8          5.9027   -3.2038    4.4172 H         1 <0>         0.1173
     32 H9          7.0727   -3.8530    6.4350 H         1 <0>         0.1082
     33 H10         9.2214   -5.0292    6.3368 H         1 <0>         0.1116
     34 H11        10.2572   -5.5857    4.2253 H         1 <0>         0.1163
@<TRIPOS>BOND
     1    1   10 ar
     2    1    2 ar
     3    1   24 1
     4    2    3 ar
     5    2   25 1
     6    3    4 ar
     7    3   26 1
     8    4    9 ar
     9    4    5 ar
    10    5    6 ar
    11    5   27 1
    12    6    7 ar
    13    6   11 1
    14    7    8 ar
    15    7   28 1
    16    8    9 ar
    17    8   29 1
    18    9   10 ar
    19   10   30 1
    20   11   12 2
    21   11   13 2
    22   11   14 1
    23   14   15 1
    24   15   23 1
    25   15   16 2
    26   16   21 ar
    27   16   17 ar
    28   17   18 ar
    29   17   31 1
    30   18   19 ar
    31   18   32 1
    32   19   20 ar
    33   19   33 1
    34   20   21 ar
    35   20   34 1
    36   21   22 2
    37   22   23 1
@<TRIPOS>MOLECULE
ZINC17206070
   49    53     0     0     0
SMALL
USER_CHARGES
(5Z)-3-(3-chlorophenyl)-6-hydroxy-2-thioxo-5-(BLAHylmethylene)pyrimidin-4-one
@<TRIPOS>ATOM
      1 C1         -0.5009   -3.2980   -5.8245 C.ar      1 <0>        -0.0993
      2 C2         -0.6978   -2.3804   -4.8108 C.ar      1 <0>        -0.0903
      3 C3         -1.7056   -2.5837   -3.8777 C.ar      1 <0>         0.1738
      4 C4         -2.5096   -3.7126   -3.9630 C.ar      1 <0>        -0.0740
      5 C5         -2.3112   -4.6248   -4.9821 C.ar      1 <0>        -0.0240
      6 C6         -1.3057   -4.4185   -5.9108 C.ar      1 <0>        -0.1084
      7 Cl1        -3.3194   -6.0337   -5.0937 Cl        1 <0>        -0.0744
      8 N1         -1.9072   -1.6547   -2.8489 N.am      1 <0>        -0.5120
      9 C7         -1.1148   -1.6915   -1.7561 C.2       1 <0>         0.5563
     10 O1         -0.2287   -2.5186   -1.6494 O.2       1 <0>        -0.4873
     11 C8         -1.3600   -0.6946   -0.6951 C.2       1 <0>        -0.2730
     12 C9         -0.5938   -0.6620    0.4593 C.2       1 <0>         0.0943
     13 C10         0.2527   -1.7531    0.7793 C.ar      1 <0>        -0.1329
     14 C11         1.5432   -1.5274    1.2736 C.ar      1 <0>        -0.0548
     15 C12         2.3727   -2.5826    1.5541 C.ar      1 <0>        -0.1409
     16 C13         1.9434   -3.8911    1.3243 C.ar      1 <0>         0.1644
     17 C14         0.6438   -4.1238    0.8707 C.ar      1 <0>        -0.1306
     18 C15        -0.1898   -3.0695    0.5993 C.ar      1 <0>         0.0044
     19 C16         0.0770   -5.5021    0.6711 C.3       1 <0>        -0.0764
     20 C17         1.0740   -6.5917    1.0348 C.3       1 <0>        -0.1201
     21 C18         2.4877   -6.1133    0.7071 C.3       1 <0>         0.0542
     22 N2          2.8023   -4.9547    1.5530 N.pl3     1 <0>        -0.4877
     23 C19         4.2104   -4.5775    1.3741 C.3       1 <0>         0.0540
     24 C20         4.5601   -3.4897    2.3886 C.3       1 <0>        -0.1207
     25 C21         3.7326   -2.2466    2.1001 C.3       1 <0>        -0.0734
     26 C22        -2.4588    0.2588   -0.9162 C.2       1 <0>         0.4979
     27 N3         -3.1477    0.1762   -2.0406 N.2       1 <0>        -0.5943
     28 C23        -2.8838   -0.7431   -2.9655 C.2       1 <0>         0.5428
     29 S1         -3.8443   -0.7636   -4.3825 S.2       1 <0>        -0.6544
     30 O2         -2.7533    1.1992    0.0068 O.3       1 <0>        -0.5929
     31 H1          0.2831   -3.1398   -6.5503 H         1 <0>         0.1345
     32 H2         -0.0684   -1.5053   -4.7443 H         1 <0>         0.1245
     33 H3         -3.2915   -3.8757   -3.2359 H         1 <0>         0.1304
     34 H4         -1.1495   -5.1346   -6.7041 H         1 <0>         0.1328
     35 H5         -0.6425    0.2106    1.1273 H         1 <0>         0.1558
     36 H6          1.8859   -0.5165    1.4387 H         1 <0>         0.1254
     37 H7         -1.1930   -3.2553    0.2453 H         1 <0>         0.1146
     38 H8         -0.8130   -5.6279    1.3052 H         1 <0>         0.0752
     39 H9         -0.2033   -5.6340   -0.3844 H         1 <0>         0.0746
     40 H10         1.0001   -6.8123    2.1099 H         1 <0>         0.0727
     41 H11         0.8502   -7.5010    0.4577 H         1 <0>         0.0761
     42 H12         3.2041   -6.9245    0.9040 H         1 <0>         0.0840
     43 H13         2.5411   -5.8264   -0.3535 H         1 <0>         0.0500
     44 H14         4.8493   -5.4582    1.5361 H         1 <0>         0.0840
     45 H15         4.3614   -4.1978    0.3528 H         1 <0>         0.0482
     46 H16         4.3396   -3.8508    3.4040 H         1 <0>         0.0738
     47 H17         5.6298   -3.2457    2.3105 H         1 <0>         0.0755
     48 H18         4.2803   -1.6342    1.3687 H         1 <0>         0.0709
     49 H19         3.6221   -1.6847    3.0392 H         1 <0>         0.0767
@<TRIPOS>BOND
     1    1    6 ar
     2    1    2 ar
     3    1   31 1
     4    2    3 ar
     5    2   32 1
     6    3    4 ar
     7    3    8 1
     8    4    5 ar
     9    4   33 1
    10    5    6 ar
    11    5    7 1
    12    6   34 1
    13    8   28 1
    14    8    9 am
    15    9   10 2
    16    9   11 1
    17   11   12 2
    18   11   26 1
    19   12   13 1
    20   12   35 1
    21   13   18 ar
    22   13   14 ar
    23   14   15 ar
    24   14   36 1
    25   15   25 1
    26   15   16 ar
    27   16   22 1
    28   16   17 ar
    29   17   18 ar
    30   17   19 1
    31   18   37 1
    32   19   20 1
    33   19   38 1
    34   19   39 1
    35   20   21 1
    36   20   40 1
    37   20   41 1
    38   21   22 1
    39   21   42 1
    40   21   43 1
    41   22   23 1
    42   23   24 1
    43   23   44 1
    44   23   45 1
    45   24   25 1
    46   24   46 1
    47   24   47 1
    48   25   48 1
    49   25   49 1
    50   26   27 2
    51   26   30 1
    52   27   28 1
    53   28   29 2
@<TRIPOS>MOLECULE
ZINC01475891
   35    37     0     0     0
SMALL
USER_CHARGES

@<TRIPOS>ATOM
      1 C1         -0.0167    1.3784    0.0096 C.ar      1 <0>        -0.1660
      2 C2          1.1698    2.0883    0.0021 C.ar      1 <0>        -0.0804
      3 C3          2.3773    1.4175   -0.0134 C.ar      1 <0>        -0.1526
      4 C4          2.3989    0.0304   -0.0210 C.ar      1 <0>         0.1404
      5 C5          1.2070   -0.6796   -0.0130 C.ar      1 <0>        -0.2128
      6 C6          0.0021   -0.0041    0.0020 C.ar      1 <0>        -0.0796
      7 O1          3.5855   -0.6319   -0.0368 O.3       1 <0>        -0.3028
      8 C7          3.5315   -2.0598   -0.0438 C.3       1 <0>         0.1731
      9 C8          4.9322   -2.6155   -0.0612 C.2       1 <0>         0.1081
     10 N1          5.6418   -2.8895   -1.1200 N.2       1 <0>        -0.2584
     11 N2          6.7920   -3.3478   -0.7760 N.2       1 <0>        -0.3318
     12 C9          6.8826   -3.3926    0.5335 C.2       1 <0>         0.3850
     13 N3          5.6984   -2.9207    1.0327 N.pl3     1 <0>        -0.3633
     14 N4          5.3432   -2.7816    2.3808 N.2       1 <0>        -0.1912
     15 C10         4.7644   -3.7616    3.0036 C.2       1 <0>         0.1535
     16 C11         4.3906   -3.6151    4.4226 C.ar      1 <0>        -0.0399
     17 C12         3.7725   -4.6704    5.0980 C.ar      1 <0>        -0.0673
     18 C13         3.4257   -4.5274    6.4251 C.ar      1 <0>        -0.1121
     19 C14         3.6881   -3.3420    7.0893 C.ar      1 <0>        -0.0823
     20 C15         4.3001   -2.2912    6.4281 C.ar      1 <0>        -0.0416
     21 C16         4.6581   -2.4221    5.0995 C.ar      1 <0>         0.0021
     22 Cl1         5.4321   -1.1065    4.2726 Cl        1 <0>         0.0081
     23 Cl2         4.6247   -0.8086    7.2708 Cl        1 <0>        -0.0475
     24 S1          8.2677   -3.9486    1.4700 S.3       1 <0>        -0.7870
     25 H1         -0.9596    1.9047    0.0260 H         1 <0>         0.1206
     26 H2          1.1525    3.1682    0.0080 H         1 <0>         0.1267
     27 H3          3.3038    1.9724   -0.0200 H         1 <0>         0.1298
     28 H4          1.2211   -1.7595   -0.0193 H         1 <0>         0.1265
     29 H5         -0.9260   -0.5563    0.0082 H         1 <0>         0.1225
     30 H6          3.0134   -2.4083    0.8497 H         1 <0>         0.0661
     31 H7          2.9951   -2.3988   -0.9302 H         1 <0>         0.0911
     32 H8          4.5565   -4.6847    2.4829 H         1 <0>         0.1292
     33 H9          3.5663   -5.5963    4.5818 H         1 <0>         0.1455
     34 H10         2.9476   -5.3428    6.9475 H         1 <0>         0.1442
     35 H11         3.4138   -3.2361    8.1285 H         1 <0>         0.1440
@<TRIPOS>BOND
     1    1    6 ar
     2    1    2 ar
     3    1   25 1
     4    2    3 ar
     5    2   26 1
     6    3    4 ar
     7    3   27 1
     8    4    5 ar
     9    4    7 1
    10    5    6 ar
    11    5   28 1
    12    6   29 1
    13    7    8 1
    14    8    9 1
    15    8   30 1
    16    8   31 1
    17    9   13 1
    18    9   10 2
    19   10   11 1
    20   11   12 2
    21   12   13 1
    22   12   24 1
    23   13   14 1
    24   14   15 2
    25   15   16 1
    26   15   32 1
    27   16   21 ar
    28   16   17 ar
    29   17   18 ar
    30   17   33 1
    31   18   19 ar
    32   18   34 1
    33   19   20 ar
    34   19   35 1
    35   20   21 ar
    36   20   23 1
    37   21   22 1
@<TRIPOS>MOLECULE
ZINC06210790
   36    38     0     0     0
SMALL
USER_CHARGES

@<TRIPOS>ATOM
      1 C1         -0.0184    1.5028    0.0103 C.3       1 <0>        -0.0676
      2 C2          0.0021   -0.0041    0.0020 C.2       1 <0>        -0.1807
      3 C3         -1.0456   -0.8712    0.0018 C.2       1 <0>        -0.1678
      4 C4         -0.8003   -2.2229   -0.0066 C.2       1 <0>        -0.1269
      5 C5          0.5181   -2.6526   -0.0146 C.2       1 <0>        -0.1449
      6 S1          1.4075   -1.1044   -0.0179 S.3       1 <0>         0.1128
      7 C6          1.0432   -4.0180   -0.0236 C.2       1 <0>         0.0009
      8 C7          2.3780   -4.2286   -0.0306 C.2       1 <0>        -0.0152
      9 C8          2.9051   -5.5991   -0.0396 C.ar      1 <0>         0.4188
     10 N1          2.0558   -6.6280   -0.0462 N.ar      1 <0>        -0.6011
     11 C9          2.4691   -7.8786   -0.0549 C.ar      1 <0>         0.4967
     12 O1          1.5737   -8.8935   -0.0619 O.3       1 <0>        -0.6383
     13 C10         3.8699   -8.1541   -0.0573 C.ar      1 <0>        -0.3226
     14 C11         4.5260   -9.3900   -0.0664 C.2       1 <0>         0.0886
     15 C12         5.8885   -9.4356   -0.0675 C.2       1 <0>        -0.2974
     16 S2          6.3449   -7.7102   -0.0557 S.3       1 <0>         0.0997
     17 C13         4.7133   -7.0125   -0.0498 C.ar      1 <0>         0.1846
     18 N2          4.2229   -5.7936   -0.0464 N.ar      1 <0>        -0.5526
     19 C14         6.7628  -10.6114   -0.0763 C.2       1 <0>         0.5625
     20 O2          6.2805  -11.7278   -0.0839 O.2       1 <0>        -0.5085
     21 O3          8.1027  -10.4555   -0.0760 O.3       1 <0>        -0.3516
     22 C15         8.8943  -11.6453   -0.0849 C.3       1 <0>         0.0382
     23 C16         3.7279  -10.6683   -0.0744 C.3       1 <0>        -0.1242
     24 Cl1         3.4697   -2.8788   -0.0290 Cl        1 <0>        -0.0234
     25 H1          1.0042    1.8801    0.0026 H         1 <0>         0.0691
     26 H2         -0.5455    1.8639   -0.8728 H         1 <0>         0.0756
     27 H3         -0.5286    1.8543    0.9071 H         1 <0>         0.0757
     28 H4         -2.0601   -0.5010    0.0086 H         1 <0>         0.1261
     29 H5         -1.6139   -2.9331   -0.0066 H         1 <0>         0.1365
     30 H6          0.3641   -4.8578   -0.0245 H         1 <0>         0.1775
     31 H7          9.9511  -11.3786   -0.0837 H         1 <0>         0.0987
     32 H8          8.6682  -12.2386    0.8011 H         1 <0>         0.0582
     33 H9          8.6671  -12.2261   -0.9788 H         1 <0>         0.0582
     34 H10         3.5346  -10.9695   -1.1039 H         1 <0>         0.0719
     35 H11         4.2910  -11.4513    0.4336 H         1 <0>         0.0763
     36 H12         2.7811  -10.5087    0.4415 H         1 <0>         0.0964
@<TRIPOS>BOND
     1    1    2 1
     2    1   25 1
     3    1   26 1
     4    1   27 1
     5    2    6 1
     6    2    3 2
     7    3    4 1
     8    3   28 1
     9    4    5 2
    10    4   29 1
    11    5    6 1
    12    5    7 1
    13    7    8 2
    14    7   30 1
    15    8    9 1
    16    8   24 1
    17    9   18 ar
    18    9   10 ar
    19   10   11 ar
    20   11   12 1
    21   11   13 ar
    22   13   17 ar
    23   13   14 1
    24   14   15 2
    25   14   23 1
    26   15   16 1
    27   15   19 1
    28   16   17 1
    29   17   18 ar
    30   19   20 2
    31   19   21 1
    32   21   22 1
    33   22   31 1
    34   22   32 1
    35   22   33 1
    36   23   34 1
    37   23   35 1
    38   23   36 1
@<TRIPOS>MOLECULE
ZINC39774920
   52    55     0     0     0
SMALL
USER_CHARGES

@<TRIPOS>ATOM
      1 C1         -0.0187    1.5258    0.0104 C.3       1 <0>        -0.1459
      2 C2          0.0021   -0.0041    0.0020 C.3       1 <0>        -0.0902
      3 C3          0.7421   -0.5109    1.2415 C.3       1 <0>        -0.1528
      4 C4         -1.4333   -0.5336    0.0129 C.3       1 <0>        -0.0993
      5 C5         -1.4157   -2.0577   -0.1212 C.3       1 <0>        -0.1064
      6 S1         -3.1175   -2.6855   -0.1083 S.3       1 <0>        -0.0106
      7 C6         -2.9294   -4.4301   -0.2685 C.2       1 <0>         0.4352
      8 N1         -1.7051   -4.9362   -0.3561 N.2       1 <0>        -0.6817
      9 C7         -1.5008   -6.2276   -0.5693 C.2       1 <0>         0.5253
     10 O1         -0.3636   -6.6576   -0.5933 O.2       1 <0>        -0.5011
     11 C8         -2.6469   -7.1655   -0.7806 C.3       1 <0>        -0.2174
     12 H1         -2.6548   -7.4612   -1.8297 H         1 <0>         0.1188
     13 C9         -2.5166   -8.4267    0.0669 C.3       1 <0>         0.0639
     14 H2         -1.6752   -9.0224   -0.2870 H         1 <0>         0.1044
     15 C10        -3.7990   -9.2218   -0.0691 C.2       1 <0>        -0.3859
     16 C11        -5.0120   -8.5467   -0.2319 C.2       1 <0>         0.3027
     17 C12        -6.3031   -9.3250   -0.3279 C.3       1 <0>        -0.0837
     18 C13        -6.0237  -10.6810   -0.9820 C.3       1 <0>        -0.1103
     19 C14        -4.9739  -11.4215   -0.1488 C.3       1 <0>        -0.1349
     20 C15        -3.7383  -10.5722   -0.0307 C.2       1 <0>         0.3473
     21 O2         -2.5425  -11.1710    0.1163 O.3       1 <0>        -0.6048
     22 N2         -5.0537   -7.2317   -0.3322 N.2       1 <0>        -0.6068
     23 C16        -3.9586   -6.4977   -0.4733 C.2       1 <0>         0.4930
     24 N3         -4.0211   -5.1942   -0.2919 N.2       1 <0>        -0.6132
     25 C17        -2.3015   -8.0497    1.5101 C.ar      1 <0>        -0.0319
     26 C18        -3.2548   -7.3046    2.1792 C.ar      1 <0>        -0.1332
     27 C19        -3.0589   -6.9581    3.5028 C.ar      1 <0>        -0.0936
     28 C20        -1.9092   -7.3557    4.1590 C.ar      1 <0>        -0.1639
     29 C21        -0.9540   -8.1018    3.4901 C.ar      1 <0>         0.0907
     30 C22        -1.1542   -8.4535    2.1657 C.ar      1 <0>        -0.1274
     31 F1          0.1704   -8.4906    4.1303 F         1 <0>        -0.1456
     32 H3          1.0039    1.9031    0.0027 H         1 <0>         0.0541
     33 H4         -0.5459    1.8868   -0.8726 H         1 <0>         0.0543
     34 H5         -0.5289    1.8773    0.9072 H         1 <0>         0.0547
     35 H6          0.5123   -0.3556   -0.8948 H         1 <0>         0.0727
     36 H7          0.2319   -0.1594    2.1383 H         1 <0>         0.0547
     37 H8          0.7568   -1.6008    1.2356 H         1 <0>         0.0612
     38 H9          1.7647   -0.1336    1.2338 H         1 <0>         0.0528
     39 H10        -1.9156   -0.2570    0.9504 H         1 <0>         0.0722
     40 H11        -1.9862   -0.1019   -0.8214 H         1 <0>         0.0714
     41 H12        -0.9334   -2.3344   -1.0587 H         1 <0>         0.0923
     42 H13        -0.8628   -2.4894    0.7131 H         1 <0>         0.0971
     43 H14        -6.7107   -9.4794    0.6711 H         1 <0>         0.0912
     44 H15        -7.0194   -8.7693   -0.9330 H         1 <0>         0.0898
     45 H16        -6.9424  -11.2665   -1.0165 H         1 <0>         0.0765
     46 H17        -5.6466  -10.5283   -1.9932 H         1 <0>         0.0686
     47 H18        -5.3738  -11.6214    0.8453 H         1 <0>         0.0891
     48 H19        -4.7221  -12.3637   -0.6355 H         1 <0>         0.0834
     49 H20        -4.1532   -6.9929    1.6671 H         1 <0>         0.1346
     50 H21        -3.8043   -6.3761    4.0245 H         1 <0>         0.1271
     51 H22        -1.7560   -7.0843    5.1930 H         1 <0>         0.1286
     52 H23        -0.4117   -9.0393    1.6441 H         1 <0>         0.1333
@<TRIPOS>BOND
     1    1    2 1
     2    1   32 1
     3    1   33 1
     4    1   34 1
     5    2    3 1
     6    2    4 1
     7    2   35 1
     8    3   36 1
     9    3   37 1
    10    3   38 1
    11    4    5 1
    12    4   39 1
    13    4   40 1
    14    5    6 1
    15    5   41 1
    16    5   42 1
    17    6    7 1
    18    7   24 1
    19    7    8 2
    20    8    9 1
    21    9   10 2
    22    9   11 1
    23   11   12 1
    24   11   23 1
    25   11   13 1
    26   13   14 1
    27   13   15 1
    28   13   25 1
    29   15   20 2
    30   15   16 1
    31   16   17 1
    32   16   22 2
    33   17   18 1
    34   17   43 1
    35   17   44 1
    36   18   19 1
    37   18   45 1
    38   18   46 1
    39   19   20 1
    40   19   47 1
    41   19   48 1
    42   20   21 1
    43   22   23 1
    44   23   24 2
    45   25   30 ar
    46   25   26 ar
    47   26   27 ar
    48   26   49 1
    49   27   28 ar
    50   27   50 1
    51   28   29 ar
    52   28   51 1
    53   29   30 ar
    54   29   31 1
    55   30   52 1
@<TRIPOS>MOLECULE
ZINC40475382
   40    44     0     0     0
SMALL
USER_CHARGES

@<TRIPOS>ATOM
      1 C1         -0.0435    1.3430    0.2665 C.ar      1 <0>        -0.1303
      2 C2          1.1384    2.0606    0.2493 C.ar      1 <0>        -0.1008
      3 C3          2.3491    1.3984    0.1891 C.ar      1 <0>        -0.1419
      4 C4          2.3785    0.0111    0.1464 C.ar      1 <0>         0.1243
      5 C5          1.1903   -0.7065    0.1642 C.ar      1 <0>        -0.1387
      6 C6         -0.0173   -0.0388    0.2240 C.ar      1 <0>        -0.1001
      7 N1          3.6059   -0.6638    0.0848 N.am      1 <0>        -0.5213
      8 C7          3.7055   -2.0134    0.0356 C.2       1 <0>         0.5488
      9 O1          2.8132   -2.8179    0.1971 O.2       1 <0>        -0.4239
     10 C8          5.1427   -2.3082   -0.2591 C.3       1 <0>        -0.1123
     11 H1          5.2284   -2.1981   -1.3402 H         1 <0>         0.1251
     12 C9          5.6833   -3.6550    0.0412 C.3       1 <0>         0.0775
     13 H2          6.5030   -3.8560   -0.6486 H         1 <0>         0.1053
     14 C10         6.1813   -3.8490    1.4245 C.2       1 <0>        -0.2918
     15 C11         6.4081   -2.9151    2.3880 C.2       1 <0>         0.1124
     16 N2          6.9042   -3.3986    3.5299 N.2       1 <0>        -0.5582
     17 C12         7.1198   -4.6836    3.7060 C.2       1 <0>         0.2826
     18 S1          7.7565   -5.5016    5.1308 S.3       1 <0>        -0.7174
     19 S2          6.6392   -5.3581    2.2397 S.3       1 <0>         0.0669
     20 S3          6.0351   -1.2043    2.1081 S.3       1 <0>        -0.0127
     21 C13         5.8822   -1.0911    0.3094 C.3       1 <0>        -0.1163
     22 H3          6.8314   -0.8891   -0.1869 H         1 <0>         0.1608
     23 C14         4.7946   -0.0285    0.0635 C.2       1 <0>         0.5538
     24 O2          4.9732    1.1575   -0.1133 O.2       1 <0>        -0.4434
     25 C15         4.5966   -4.6678   -0.2123 C.ar      1 <0>        -0.0768
     26 C16         3.7700   -5.0677    0.8211 C.ar      1 <0>        -0.0402
     27 C17         2.7732   -5.9966    0.5892 C.ar      1 <0>        -0.1074
     28 C18         2.6026   -6.5262   -0.6775 C.ar      1 <0>        -0.0273
     29 C19         3.4302   -6.1256   -1.7114 C.ar      1 <0>        -0.1176
     30 C20         4.4230   -5.1925   -1.4795 C.ar      1 <0>        -0.1016
     31 Cl1         1.3511   -7.6933   -0.9695 Cl        1 <0>        -0.0818
     32 H4         -0.9888    1.8628    0.3177 H         1 <0>         0.1244
     33 H5          1.1149    3.1398    0.2826 H         1 <0>         0.1288
     34 H6          3.2719    1.9594    0.1750 H         1 <0>         0.1529
     35 H7          1.2101   -1.7858    0.1307 H         1 <0>         0.1553
     36 H8         -0.9421   -0.5966    0.2376 H         1 <0>         0.1289
     37 H9          3.9035   -4.6545    1.8099 H         1 <0>         0.1275
     38 H10         2.1277   -6.3092    1.3967 H         1 <0>         0.1295
     39 H11         3.2977   -6.5389   -2.7003 H         1 <0>         0.1289
     40 H12         5.0660   -4.8761   -2.2875 H         1 <0>         0.1281
@<TRIPOS>BOND
     1    1    6 ar
     2    1    2 ar
     3    1   32 1
     4    2    3 ar
     5    2   33 1
     6    3    4 ar
     7    3   34 1
     8    4    5 ar
     9    4    7 1
    10    5    6 ar
    11    5   35 1
    12    6   36 1
    13    7   23 am
    14    7    8 am
    15    8    9 2
    16    8   10 1
    17   10   11 1
    18   10   21 1
    19   10   12 1
    20   12   13 1
    21   12   14 1
    22   12   25 1
    23   14   19 1
    24   14   15 2
    25   15   16 1
    26   15   20 1
    27   16   17 2
    28   17   18 1
    29   17   19 1
    30   20   21 1
    31   21   22 1
    32   21   23 1
    33   23   24 2
    34   25   30 ar
    35   25   26 ar
    36   26   27 ar
    37   26   37 1
    38   27   28 ar
    39   27   38 1
    40   28   29 ar
    41   28   31 1
    42   29   30 ar
    43   29   39 1
    44   30   40 1
@<TRIPOS>MOLECULE
ZINC06191288
   48    52     0     0     0
SMALL
USER_CHARGES
4-(4-bromophenyl)-5-[2-(1,2,3,4-tetrahydrocarbazol-9-yl)ethyl]-1,2,4-triazole-3-thiol
@<TRIPOS>ATOM
      1 C1         -1.2475    3.1316    0.0460 C.ar      1 <0>        -0.1425
      2 C2         -1.2155    1.7438    0.0265 C.ar      1 <0>        -0.0967
      3 C3         -0.0144    1.0695    0.0159 C.ar      1 <0>        -0.1147
      4 C4          1.1797    1.7831    0.0130 C.ar      1 <0>         0.0991
      5 C5          1.1423    3.1907    0.0263 C.ar      1 <0>        -0.0958
      6 C6         -0.0873    3.8527    0.0431 C.ar      1 <0>        -0.0660
      7 C7          2.5352    3.6263    0.0180 C.2       1 <0>        -0.1784
      8 C8          3.3025    2.5197    0.0012 C.2       1 <0>         0.0904
      9 N1          2.5059    1.4097   -0.0010 N.pl3     1 <0>        -0.4711
     10 C9          2.9903    0.0271   -0.0163 C.3       1 <0>         0.1111
     11 C10         3.1476   -0.4421   -1.4641 C.3       1 <0>        -0.0314
     12 C11         3.6458   -1.8643   -1.4799 C.2       1 <0>         0.1212
     13 N2          4.8915   -2.2462   -1.4985 N.2       1 <0>        -0.2798
     14 N3          4.9611   -3.5294   -1.4993 N.2       1 <0>        -0.3402
     15 C12         3.7527   -4.0429   -1.4901 C.2       1 <0>         0.3823
     16 N4          2.8732   -2.9953   -1.4774 N.pl3     1 <0>        -0.4595
     17 C13         1.4722   -3.0648   -1.4645 C.ar      1 <0>         0.1754
     18 C14         0.7633   -2.6019   -0.3644 C.ar      1 <0>        -0.1121
     19 C15        -0.6164   -2.6662   -0.3565 C.ar      1 <0>        -0.0815
     20 C16        -1.2913   -3.2019   -1.4390 C.ar      1 <0>        -0.0874
     21 C17        -0.5867   -3.6691   -2.5342 C.ar      1 <0>        -0.0771
     22 C18         0.7928   -3.6018   -2.5493 C.ar      1 <0>        -0.0785
     23 Br1        -3.1799   -3.2961   -1.4214 Br        1 <0>        -0.0537
     24 S1          3.3419   -5.7563   -1.4944 S.3       1 <0>        -0.7895
     25 C19         4.8137    2.5485   -0.0123 C.3       1 <0>        -0.0629
     26 C20         5.2702    3.9517   -0.4268 C.3       1 <0>        -0.1124
     27 C21         4.5453    4.9974    0.4253 C.3       1 <0>        -0.1194
     28 C22         3.0645    5.0372    0.0276 C.3       1 <0>        -0.0417
     29 H1         -2.1293    3.6032    0.0578 H         1 <0>         0.1095
     30 H2         -2.0754    1.2334    0.0243 H         1 <0>         0.1129
     31 H3         -0.0024    0.0697    0.0060 H         1 <0>         0.1085
     32 H4         -0.1198    4.8521    0.0527 H         1 <0>         0.1081
     33 H5          3.9632   -0.0263    0.4942 H         1 <0>         0.0984
     34 H6          2.2680   -0.6203    0.5025 H         1 <0>         0.0860
     35 H7          2.1747   -0.3887   -1.9746 H         1 <0>         0.0794
     36 H8          3.8699    0.2052   -1.9829 H         1 <0>         0.0973
     37 H9          1.2899   -2.1878    0.4827 H         1 <0>         0.1288
     38 H10        -1.1686   -2.3018    0.4971 H         1 <0>         0.1373
     39 H11        -1.1157   -4.0871   -3.3779 H         1 <0>         0.1384
     40 H12         1.3423   -3.9670   -3.4043 H         1 <0>         0.1375
     41 H13         5.1940    2.3117    0.9923 H         1 <0>         0.0817
     42 H14         5.1882    1.8045   -0.7309 H         1 <0>         0.0833
     43 H15         6.3558    4.0439   -0.2750 H         1 <0>         0.0718
     44 H16         5.0332    4.1157   -1.4884 H         1 <0>         0.0685
     45 H17         4.6340    4.7295    1.4885 H         1 <0>         0.0644
     46 H18         4.9985    5.9855    0.2571 H         1 <0>         0.0661
     47 H19         2.9562    5.4762   -0.9752 H         1 <0>         0.0675
     48 H20         2.4962    5.6371    0.7537 H         1 <0>         0.0676
@<TRIPOS>BOND
     1    1    6 ar
     2    1    2 ar
     3    1   29 1
     4    2    3 ar
     5    2   30 1
     6    3    4 ar
     7    3   31 1
     8    4    9 1
     9    4    5 ar
    10    5    6 ar
    11    5    7 1
    12    6   32 1
    13    7   28 1
    14    7    8 2
    15    8    9 1
    16    8   25 1
    17    9   10 1
    18   10   11 1
    19   10   33 1
    20   10   34 1
    21   11   35 1
    22   11   36 1
    23   11   12 1
    24   12   16 1
    25   12   13 2
    26   13   14 1
    27   14   15 2
    28   15   24 1
    29   15   16 1
    30   16   17 1
    31   17   22 ar
    32   17   18 ar
    33   18   19 ar
    34   18   37 1
    35   19   20 ar
    36   19   38 1
    37   20   21 ar
    38   20   23 1
    39   21   22 ar
    40   21   39 1
    41   22   40 1
    42   25   26 1
    43   25   41 1
    44   25   42 1
    45   26   27 1
    46   26   43 1
    47   26   44 1
    48   27   28 1
    49   27   45 1
    50   27   46 1
    51   28   47 1
    52   28   48 1
@<TRIPOS>MOLECULE
ZINC03978604
   84    88     0     0     0
SMALL
USER_CHARGES

@<TRIPOS>ATOM
      1 C1          0.1247    3.3085    1.5828 C.3       1 <0>        -0.1520
      2 C2         -0.1687    1.8004    1.1837 C.3       1 <0>        -0.0642
      3 H1          0.1283    1.6692    0.2064 H         1 <0>         0.0737
      4 C3         -1.6732    1.5737    1.3348 C.3       1 <0>        -0.0808
      5 C4         -2.0784    0.2219    1.7322 C.3       1 <0>        -0.0963
      6 C5         -1.0726   -0.8323    1.7082 C.3       1 <0>        -0.0929
      7 C6         -1.5850   -2.0880    2.4792 C.3       1 <0>        -0.1065
      8 C7         -1.9004   -1.7760    3.9519 C.3       1 <0>        -0.0980
      9 C8         -0.7154   -0.8857    4.5846 C.3       1 <0>        -0.0432
     10 C9          0.4629   -0.9766    3.6655 C.2       1 <0>         0.0540
     11 C10         1.5542   -1.5641    4.0392 C.2       1 <0>        -0.2534
     12 C11         1.7087   -2.1459    5.3247 C.2       1 <0>         0.3657
     13 O1          2.8936   -2.3476    5.8302 O.2       1 <0>        -0.5014
     14 C12         0.4473   -2.4973    6.1380 C.3       1 <0>        -0.0853
     15 H2          0.0562   -3.3452    5.5688 H         1 <0>         0.0973
     16 C13        -0.4186   -1.2631    6.0321 C.3       1 <0>        -0.0345
     17 C14         0.2016   -0.0906    6.8174 C.3       1 <0>        -0.1035
     18 C15         0.5519   -0.5232    8.1805 C.3       1 <0>        -0.1157
     19 C16         1.5821   -1.6463    8.1326 C.3       1 <0>        -0.0637
     20 H3          2.3972   -1.3894    7.5324 H         1 <0>         0.0946
     21 C17         0.8617   -2.9078    7.5391 C.3       1 <0>        -0.0356
     22 C18         1.9388   -4.1083    7.4043 C.3       1 <0>        -0.1178
     23 C19         2.4690   -4.3675    8.8484 C.3       1 <0>        -0.1502
     24 C20         3.1392   -3.2436    9.4267 C.3       1 <0>         0.1305
     25 H4          4.0054   -3.0016    8.8487 H         1 <0>         0.0837
     26 C21         2.1985   -1.9764    9.4927 C.3       1 <0>        -0.0428
     27 C22         1.2924   -2.0654   10.6301 C.3       1 <0>        -0.1429
     28 C23         3.1955   -0.7214    9.7671 C.3       1 <0>        -0.1579
     29 O2          3.5896   -3.4933   10.8223 O.3       1 <0>        -0.3601
     30 C24         4.8190   -4.0074   10.9831 C.2       1 <0>         0.4528
     31 O3          5.5052   -4.2459   10.0176 O.2       1 <0>        -0.5149
     32 C25         5.3435   -4.2872   12.3679 C.3       1 <0>        -0.1480
     33 C26        -0.2280   -3.4224    8.2835 C.3       1 <0>        -0.1536
     34 C27        -1.8562   -1.5386    6.6749 C.3       1 <0>        -0.1543
     35 C28         0.2292   -0.4722    2.3044 C.3       1 <0>        -0.0575
     36 H5          1.0631   -1.0480    1.6422 H         1 <0>         0.0910
     37 C29         0.6333    0.9594    2.1289 C.3       1 <0>        -0.0593
     38 H6          0.7290    1.4798    3.1430 H         1 <0>         0.0596
     39 C30         2.1290    1.0123    1.5648 C.3       1 <0>        -0.1609
     40 C31        -1.2323    0.4837    4.6155 C.3       1 <0>        -0.1743
     41 C32        -0.8731   -1.3063    0.2615 C.2       1 <0>         0.5051
     42 O4         -1.5178   -0.7992   -0.6405 O.co2     1 <0>        -0.6841
     43 O5         -0.0700   -2.1899    0.0148 O.co2     1 <0>        -0.6913
     44 H7          1.1911    3.5103    1.4817 H         1 <0>         0.0504
     45 H8         -0.4349    3.9738    0.9253 H         1 <0>         0.0487
     46 H9         -0.1806    3.4771    2.6155 H         1 <0>         0.0500
     47 H10        -2.0706    2.2878    2.0834 H         1 <0>         0.0345
     48 H11        -2.1497    1.9342    0.4024 H         1 <0>         0.0514
     49 H12        -2.6557    0.2190    2.6293 H         1 <0>         0.0515
     50 H13        -2.9279   -0.1124    0.9418 H         1 <0>         0.0563
     51 H14        -2.5299   -2.4358    2.0002 H         1 <0>         0.0561
     52 H15        -0.8258   -2.8344    2.4211 H         1 <0>         0.0678
     53 H16        -2.7996   -1.2138    4.0495 H         1 <0>         0.0727
     54 H17        -1.9250   -2.7406    4.4928 H         1 <0>         0.0640
     55 H18         2.4318   -1.5283    3.3326 H         1 <0>         0.1329
     56 H19         1.1451    0.1528    6.2072 H         1 <0>         0.0639
     57 H20        -0.4559    0.7135    6.9220 H         1 <0>         0.0788
     58 H21         1.1031    0.3634    8.7363 H         1 <0>         0.0555
     59 H22        -0.3119   -0.7756    8.7733 H         1 <0>         0.0760
     60 H23         1.3729   -4.9781    7.0470 H         1 <0>         0.0642
     61 H24         2.7526   -3.8537    6.8261 H         1 <0>         0.1066
     62 H25         1.5416   -4.7256    9.4574 H         1 <0>         0.0721
     63 H26         3.0880   -5.2238    8.7589 H         1 <0>         0.0590
     64 H27         0.5277   -2.8154   10.4277 H         1 <0>         0.0627
     65 H28         1.8535   -2.3498   11.5202 H         1 <0>         0.0671
     66 H29         0.8180   -1.0977   10.7933 H         1 <0>         0.0558
     67 H30         2.6190    0.2035    9.7849 H         1 <0>         0.0580
     68 H31         3.6946   -0.8569   10.7266 H         1 <0>         0.0508
     69 H32         3.9412   -0.6695    8.9737 H         1 <0>         0.0524
     70 H33         5.0788   -5.3039   12.6582 H         1 <0>         0.1012
     71 H34         6.4281   -4.1782   12.3745 H         1 <0>         0.0988
     72 H35         4.9032   -3.5818   13.0726 H         1 <0>         0.0911
     73 H36        -0.7906   -4.1232    7.6667 H         1 <0>         0.0582
     74 H37         0.1470   -3.9369    9.1681 H         1 <0>         0.0673
     75 H38        -0.8790   -2.6030    8.5883 H         1 <0>         0.0689
     76 H39        -2.2520   -2.4787    6.2905 H         1 <0>         0.0591
     77 H40        -1.7638   -1.5996    7.7592 H         1 <0>         0.0616
     78 H41        -2.5332   -0.7254    6.4131 H         1 <0>         0.0607
     79 H42         2.4763    2.0454    1.5524 H         1 <0>         0.0501
     80 H43         2.7802    0.4177    2.2055 H         1 <0>         0.0474
     81 H44         2.1498    0.6098    0.5520 H         1 <0>         0.0566
     82 H45        -2.1918    0.4983    5.1326 H         1 <0>         0.0598
     83 H46        -0.5265    1.1267    5.1412 H         1 <0>         0.0559
     84 H47        -1.3636    0.8456    3.5958 H         1 <0>         0.0927
@<TRIPOS>BOND
     1    1    2 1
     2    1   44 1
     3    1   45 1
     4    1   46 1
     5    2    3 1
     6    2   37 1
     7    2    4 1
     8    4    5 1
     9    4   47 1
    10    4   48 1
    11    5    6 1
    12    5   49 1
    13    5   50 1
    14    6   35 1
    15    6    7 1
    16    6   41 1
    17    7    8 1
    18    7   51 1
    19    7   52 1
    20    8    9 1
    21    8   53 1
    22    8   54 1
    23    9   16 1
    24    9   10 1
    25    9   40 1
    26   10   11 2
    27   10   35 1
    28   11   12 1
    29   11   55 1
    30   12   13 2
    31   12   14 1
    32   14   15 1
    33   14   21 1
    34   14   16 1
    35   16   17 1
    36   16   34 1
    37   17   18 1
    38   17   56 1
    39   17   57 1
    40   18   19 1
    41   18   58 1
    42   18   59 1
    43   19   20 1
    44   19   26 1
    45   19   21 1
    46   21   22 1
    47   21   33 1
    48   22   23 1
    49   22   60 1
    50   22   61 1
    51   23   24 1
    52   23   62 1
    53   23   63 1
    54   24   25 1
    55   24   26 1
    56   24   29 1
    57   26   27 1
    58   26   28 1
    59   27   64 1
    60   27   65 1
    61   27   66 1
    62   28   67 1
    63   28   68 1
    64   28   69 1
    65   29   30 1
    66   30   31 2
    67   30   32 1
    68   32   70 1
    69   32   71 1
    70   32   72 1
    71   33   73 1
    72   33   74 1
    73   33   75 1
    74   34   76 1
    75   34   77 1
    76   34   78 1
    77   35   36 1
    78   35   37 1
    79   37   38 1
    80   37   39 1
    81   39   79 1
    82   39   80 1
    83   39   81 1
    84   40   82 1
    85   40   83 1
    86   40   84 1
    87   41   42 2
    88   41   43 1
@<TRIPOS>MOLECULE
ZINC43732570
   84    88     0     0     0
SMALL
USER_CHARGES

@<TRIPOS>ATOM
      1 C1          0.5374    1.5805   -0.3918 C.3       1 <0>        -0.1482
      2 C2          0.4524    0.0786   -0.3012 C.2       1 <0>         0.4561
      3 O1          0.6077   -0.4722    0.7629 O.2       1 <0>        -0.5149
      4 O2          0.2040   -0.6472   -1.4027 O.3       1 <0>        -0.3407
      5 C3          0.1370   -2.0662   -1.2435 C.3       1 <0>         0.1008
      6 H1          0.7889   -2.3695   -0.4233 H         1 <0>         0.0810
      7 C4         -1.3008   -2.4784   -0.9348 C.3       1 <0>        -0.1382
      8 C5         -1.3151   -3.9806   -0.6721 C.3       1 <0>        -0.1153
      9 C6         -0.9169   -4.7532   -1.9398 C.3       1 <0>        -0.0228
     10 C7          0.3956   -4.2396   -2.5116 C.3       1 <0>        -0.0531
     11 H2          1.1817   -4.6280   -1.7976 H         1 <0>         0.0587
     12 C8          0.6048   -2.7437   -2.5355 C.3       1 <0>        -0.0415
     13 C9         -0.0747   -2.0553   -3.7179 C.3       1 <0>        -0.1448
     14 C10         2.1222   -2.4633   -2.6500 C.3       1 <0>        -0.1490
     15 C11         0.7187   -4.9165   -3.8347 C.3       1 <0>        -0.1035
     16 C12        -0.3986   -4.8846   -4.8633 C.3       1 <0>        -0.1085
     17 C13        -1.7557   -5.2758   -4.3150 C.3       1 <0>        -0.0140
     18 C14        -2.0411   -4.6753   -2.9461 C.3       1 <0>        -0.1100
     19 H3         -2.2819   -3.5982   -3.0865 H         1 <0>         0.1011
     20 C15        -3.3184   -5.3231   -2.4454 C.2       1 <0>         0.4027
     21 O3         -3.4443   -5.8276   -1.3532 O.2       1 <0>        -0.4580
     22 C16        -4.4522   -5.2846   -3.3858 C.2       1 <0>        -0.2705
     23 C17        -4.2450   -5.0795   -4.6853 C.2       1 <0>         0.0064
     24 C18        -2.8771   -4.8962   -5.2876 C.3       1 <0>        -0.0163
     25 C19        -2.7342   -5.6537   -6.6016 C.3       1 <0>        -0.1039
     26 C20        -3.9491   -5.4826   -7.5116 C.3       1 <0>        -0.1129
     27 C21        -5.2273   -5.9267   -6.7962 C.3       1 <0>        -0.0453
     28 C22        -5.4476   -5.0008   -5.6032 C.3       1 <0>        -0.0454
     29 H4         -5.5199   -3.9679   -5.9744 H         1 <0>         0.0951
     30 C23        -6.7285   -5.3517   -4.8643 C.3       1 <0>        -0.0787
     31 C24        -7.9343   -5.2813   -5.8006 C.3       1 <0>        -0.1290
     32 C25        -7.7202   -6.1457   -7.0380 C.3       1 <0>        -0.0847
     33 C26        -6.4154   -5.8119   -7.7517 C.3       1 <0>        -0.0979
     34 C27        -9.1700   -5.7992   -5.0470 C.3       1 <0>        -0.1235
     35 C28        -8.1918   -3.8532   -6.2077 C.2       1 <0>         0.5069
     36 O4         -8.6877   -3.6090   -7.2944 O.co2     1 <0>        -0.6986
     37 O5         -7.9042   -2.9420   -5.4503 O.co2     1 <0>        -0.6982
     38 C29        -5.0801   -7.3760   -6.3367 C.3       1 <0>        -0.1393
     39 C30        -2.7603   -3.3998   -5.6114 C.3       1 <0>        -0.1522
     40 C31        -1.7956   -6.8116   -4.1976 C.3       1 <0>        -0.1704
     41 C32        -0.6637   -6.1994   -1.4582 C.3       1 <0>        -0.1612
     42 H5          1.5669    1.8744   -0.5962 H         1 <0>         0.1023
     43 H6         -0.1077    1.9331   -1.1966 H         1 <0>         0.0947
     44 H7          0.2145    2.0202    0.5518 H         1 <0>         0.1006
     45 H8         -1.6409   -1.9515   -0.0386 H         1 <0>         0.0647
     46 H9         -1.9602   -2.2317   -1.7610 H         1 <0>         0.0771
     47 H10        -0.6036   -4.2198    0.1216 H         1 <0>         0.0644
     48 H11        -2.3115   -4.2894   -0.3583 H         1 <0>         0.0845
     49 H12         0.1997   -1.0005   -3.7308 H         1 <0>         0.0620
     50 H13         0.2477   -2.5260   -4.6466 H         1 <0>         0.0629
     51 H14        -1.1563   -2.1482   -3.6199 H         1 <0>         0.0601
     52 H15         2.6350   -2.8794   -1.7828 H         1 <0>         0.0503
     53 H16         2.5097   -2.9258   -3.5577 H         1 <0>         0.0609
     54 H17         2.2908   -1.3872   -2.6900 H         1 <0>         0.0583
     55 H18         1.6125   -4.4539   -4.2785 H         1 <0>         0.0627
     56 H19         0.9982   -5.9639   -3.6433 H         1 <0>         0.0598
     57 H20        -0.3968   -3.9368   -5.3884 H         1 <0>         0.0776
     58 H21        -0.1359   -5.6349   -5.6459 H         1 <0>         0.0564
     59 H22        -5.4520   -5.4264   -3.0040 H         1 <0>         0.1376
     60 H23        -1.8591   -5.2425   -7.1376 H         1 <0>         0.0585
     61 H24        -2.5443   -6.7125   -6.4742 H         1 <0>         0.0724
     62 H25        -4.0474   -4.4429   -7.8192 H         1 <0>         0.0646
     63 H26        -3.8157   -6.1000   -8.4062 H         1 <0>         0.0605
     64 H27        -6.6619   -6.3458   -4.4233 H         1 <0>         0.0459
     65 H28        -6.8795   -4.6299   -4.0495 H         1 <0>         0.0667
     66 H29        -7.7410   -7.1992   -6.7556 H         1 <0>         0.0398
     67 H30        -8.5551   -5.9747   -7.7315 H         1 <0>         0.0617
     68 H31        -6.4541   -4.8025   -8.1629 H         1 <0>         0.0672
     69 H32        -6.2678   -6.5137   -8.5807 H         1 <0>         0.0479
     70 H33        -9.3457   -5.1792   -4.1679 H         1 <0>         0.0485
     71 H34       -10.0399   -5.7553   -5.7023 H         1 <0>         0.0480
     72 H35        -9.0005   -6.8302   -4.7366 H         1 <0>         0.0388
     73 H36        -4.2355   -7.4563   -5.6524 H         1 <0>         0.0528
     74 H37        -5.9913   -7.6901   -5.8277 H         1 <0>         0.0584
     75 H38        -4.9085   -8.0159   -7.2023 H         1 <0>         0.0479
     76 H39        -1.7907   -3.2015   -6.0681 H         1 <0>         0.0644
     77 H40        -3.5529   -3.1149   -6.3034 H         1 <0>         0.0669
     78 H41        -2.8545   -2.8208   -4.6928 H         1 <0>         0.0579
     79 H42        -0.9939   -7.1467   -3.5394 H         1 <0>         0.0667
     80 H43        -2.7566   -7.1197   -3.7857 H         1 <0>         0.0575
     81 H44        -1.6644   -7.2550   -5.1847 H         1 <0>         0.0641
     82 H45        -1.6142   -6.6706   -1.2076 H         1 <0>         0.0779
     83 H46        -0.1752   -6.7661   -2.2509 H         1 <0>         0.0589
     84 H47        -0.0232   -6.1819   -0.5764 H         1 <0>         0.0511
@<TRIPOS>BOND
     1    1    2 1
     2    1   42 1
     3    1   43 1
     4    1   44 1
     5    2    3 2
     6    2    4 1
     7    4    5 1
     8    5    6 1
     9    5   12 1
    10    5    7 1
    11    7    8 1
    12    7   45 1
    13    7   46 1
    14    8    9 1
    15    8   47 1
    16    8   48 1
    17    9   18 1
    18    9   10 1
    19    9   41 1
    20   10   11 1
    21   10   12 1
    22   10   15 1
    23   12   13 1
    24   12   14 1
    25   13   49 1
    26   13   50 1
    27   13   51 1
    28   14   52 1
    29   14   53 1
    30   14   54 1
    31   15   16 1
    32   15   55 1
    33   15   56 1
    34   16   17 1
    35   16   57 1
    36   16   58 1
    37   17   24 1
    38   17   18 1
    39   17   40 1
    40   18   19 1
    41   18   20 1
    42   20   21 2
    43   20   22 1
    44   22   23 2
    45   22   59 1
    46   23   28 1
    47   23   24 1
    48   24   25 1
    49   24   39 1
    50   25   26 1
    51   25   60 1
    52   25   61 1
    53   26   27 1
    54   26   62 1
    55   26   63 1
    56   27   33 1
    57   27   28 1
    58   27   38 1
    59   28   29 1
    60   28   30 1
    61   30   31 1
    62   30   64 1
    63   30   65 1
    64   31   32 1
    65   31   34 1
    66   31   35 1
    67   32   33 1
    68   32   66 1
    69   32   67 1
    70   33   68 1
    71   33   69 1
    72   34   70 1
    73   34   71 1
    74   34   72 1
    75   35   36 2
    76   35   37 1
    77   38   73 1
    78   38   74 1
    79   38   75 1
    80   39   76 1
    81   39   77 1
    82   39   78 1
    83   40   79 1
    84   40   80 1
    85   40   81 1
    86   41   82 1
    87   41   83 1
    88   41   84 1
@<TRIPOS>MOLECULE
ZINC59136270
   53    57     0     0     0
SMALL
USER_CHARGES

@<TRIPOS>ATOM
      1 C1         -0.2736    1.4894    0.5563 C.3       1 <0>        -0.1005
      2 C2          0.0910    0.1720   -0.0783 C.2       1 <0>         0.1219
      3 C3          0.5095    0.0045   -1.3885 C.2       1 <0>        -0.1663
      4 C4          0.7507   -1.4431   -1.5587 C.ar      1 <0>        -0.0149
      5 C5          1.1760   -2.2328   -2.6222 C.ar      1 <0>        -0.0606
      6 C6          1.3032   -3.5950   -2.4527 C.ar      1 <0>        -0.1374
      7 C7          1.0086   -4.1773   -1.2290 C.ar      1 <0>        -0.1114
      8 C8          0.5860   -3.4060   -0.1680 C.ar      1 <0>        -0.1339
      9 C9          0.4524   -2.0295   -0.3195 C.ar      1 <0>         0.0935
     10 N1          0.0659   -1.0211    0.5415 N.pl3     1 <0>        -0.4582
     11 C10        -0.3224   -1.2242    1.9395 C.3       1 <0>         0.1417
     12 C11        -1.7702   -1.6374    2.0037 C.ar      1 <0>        -0.1036
     13 C12        -2.7658   -0.7055    1.7775 C.ar      1 <0>        -0.0847
     14 C13        -4.0938   -1.0843    1.8364 C.ar      1 <0>        -0.1106
     15 C14        -4.4272   -2.3955    2.1214 C.ar      1 <0>        -0.0985
     16 C15        -3.4328   -3.3281    2.3477 C.ar      1 <0>        -0.1105
     17 C16        -2.1031   -2.9506    2.2833 C.ar      1 <0>        -0.0174
     18 Cl1        -0.8532   -4.1230    2.5609 Cl        1 <0>        -0.0610
     19 C17         0.6716    1.0102   -2.3609 C.2       1 <0>         0.1201
     20 C18        -0.0355    0.9414   -3.5576 C.2       1 <0>        -0.2665
     21 C19        -1.0752   -0.0725   -3.7773 C.2       1 <0>         0.4889
     22 O1         -1.3758   -0.9728   -2.8166 O.3       1 <0>        -0.5540
     23 N2         -1.7107   -0.0837   -4.9370 N.2       1 <0>        -0.5947
     24 C20        -1.4362    0.7905   -5.9008 C.2       1 <0>         0.5454
     25 S1         -2.3198    0.6870   -7.3635 S.2       1 <0>        -0.6713
     26 N3         -0.5049    1.7491   -5.7890 N.am      1 <0>        -0.5097
     27 C21         0.2212    1.8867   -4.6589 C.2       1 <0>         0.5600
     28 O2          1.0630    2.7598   -4.5548 O.2       1 <0>        -0.5085
     29 C22        -0.2856    2.6257   -6.8606 C.ar      1 <0>         0.1274
     30 C23        -0.9984    3.8138   -6.9445 C.ar      1 <0>        -0.0643
     31 C24        -0.7799    4.6761   -8.0014 C.ar      1 <0>        -0.1233
     32 C25         0.1476    4.3575   -8.9764 C.ar      1 <0>        -0.0894
     33 C26         0.8601    3.1753   -8.8974 C.ar      1 <0>        -0.1498
     34 C27         0.6506    2.3099   -7.8389 C.ar      1 <0>         0.1248
     35 F1          1.3507    1.1573   -7.7584 F         1 <0>        -0.1334
     36 H1          0.6155    1.9374    1.0000 H         1 <0>         0.0837
     37 H2         -0.6776    2.1590   -0.2030 H         1 <0>         0.0869
     38 H3         -1.0225    1.3246    1.3309 H         1 <0>         0.0702
     39 H4          1.4051   -1.7809   -3.5760 H         1 <0>         0.1102
     40 H5          1.6331   -4.2111   -3.2761 H         1 <0>         0.1175
     41 H6          1.1111   -5.2454   -1.1064 H         1 <0>         0.1179
     42 H7          0.3589   -3.8698    0.7806 H         1 <0>         0.1227
     43 H8          0.2981   -2.0050    2.3792 H         1 <0>         0.1013
     44 H9         -0.1847   -0.2956    2.4934 H         1 <0>         0.1035
     45 H10        -2.5060    0.3190    1.5552 H         1 <0>         0.1315
     46 H11        -4.8713   -0.3558    1.6600 H         1 <0>         0.1318
     47 H12        -5.4650   -2.6909    2.1676 H         1 <0>         0.1340
     48 H13        -3.6934   -4.3522    2.5707 H         1 <0>         0.1353
     49 H14         1.3447    1.8348   -2.1780 H         1 <0>         0.1356
     50 H15        -1.7235    4.0637   -6.1843 H         1 <0>         0.1283
     51 H16        -1.3346    5.6005   -8.0665 H         1 <0>         0.1314
     52 H17         0.3155    5.0336   -9.8017 H         1 <0>         0.1322
     53 H18         1.5838    2.9294   -9.6604 H         1 <0>         0.1365
@<TRIPOS>BOND
     1    1    2 1
     2    1   36 1
     3    1   37 1
     4    1   38 1
     5    2   10 1
     6    2    3 2
     7    3    4 1
     8    3   19 1
     9    4    9 ar
    10    4    5 ar
    11    5    6 ar
    12    5   39 1
    13    6    7 ar
    14    6   40 1
    15    7    8 ar
    16    7   41 1
    17    8    9 ar
    18    8   42 1
    19    9   10 1
    20   10   11 1
    21   11   12 1
    22   11   43 1
    23   11   44 1
    24   12   17 ar
    25   12   13 ar
    26   13   14 ar
    27   13   45 1
    28   14   15 ar
    29   14   46 1
    30   15   16 ar
    31   15   47 1
    32   16   17 ar
    33   16   48 1
    34   17   18 1
    35   19   20 2
    36   19   49 1
    37   20   27 1
    38   20   21 1
    39   21   22 1
    40   21   23 2
    41   23   24 1
    42   24   25 2
    43   24   26 1
    44   26   27 am
    45   26   29 1
    46   27   28 2
    47   29   34 ar
    48   29   30 ar
    49   30   31 ar
    50   30   50 1
    51   31   32 ar
    52   31   51 1
    53   32   33 ar
    54   32   52 1
    55   33   34 ar
    56   33   53 1
    57   34   35 1
@<TRIPOS>MOLECULE
ZINC39766114
   52    55     0     0     0
SMALL
USER_CHARGES

@<TRIPOS>ATOM
      1 C1         -0.0187    1.5258    0.0104 C.3       1 <0>        -0.1453
      2 C2          0.0021   -0.0041    0.0020 C.3       1 <0>        -0.1083
      3 C3         -1.4333   -0.5336    0.0129 C.3       1 <0>        -0.1054
      4 S1         -1.4087   -2.3475    0.0029 S.3       1 <0>        -0.0108
      5 C4         -3.1124   -2.7969    0.0168 C.2       1 <0>         0.4331
      6 N1         -4.0277   -1.8353    0.0252 N.2       1 <0>        -0.6832
      7 C5         -5.3218   -2.1071   -0.0565 C.2       1 <0>         0.5177
      8 O1         -6.1287   -1.1993    0.0030 O.2       1 <0>        -0.4868
      9 C6         -5.8062   -3.5129   -0.2212 C.3       1 <0>        -0.2150
     10 H1         -6.1872   -3.6244   -1.2363 H         1 <0>         0.1158
     11 C7         -6.9352   -3.8450    0.7490 C.3       1 <0>         0.0574
     12 H2         -6.6287   -3.6027    1.7666 H         1 <0>         0.0767
     13 C8         -7.2301   -5.3272    0.6434 C.2       1 <0>        -0.3904
     14 C9         -6.1890   -6.2176    0.3662 C.2       1 <0>         0.3055
     15 C10        -6.4577   -7.7021    0.2917 C.3       1 <0>        -0.0727
     16 C11        -7.6493   -8.0481    1.1880 C.3       1 <0>        -0.0584
     17 C12        -8.8551   -7.2146    0.7425 C.3       1 <0>        -0.1226
     18 C13        -8.5011   -5.7543    0.8228 C.2       1 <0>         0.3459
     19 O2         -9.4685   -4.8548    1.0783 O.3       1 <0>        -0.5774
     20 C14        -7.9767   -9.5367    1.0551 C.3       1 <0>        -0.1373
     21 C15        -7.3089   -7.7215    2.6435 C.3       1 <0>        -0.1463
     22 N2         -4.9634   -5.7841    0.1372 N.2       1 <0>        -0.6030
     23 C16        -4.6867   -4.4985   -0.0306 C.2       1 <0>         0.4892
     24 N3         -3.4355   -4.0898    0.0129 N.2       1 <0>        -0.6141
     25 C17        -8.1657   -3.0539    0.3869 C.ar      1 <0>         0.0514
     26 C18        -8.7480   -3.2122   -0.8569 C.ar      1 <0>        -0.0962
     27 C19        -9.8767   -2.4870   -1.1899 C.ar      1 <0>        -0.1011
     28 C20       -10.4242   -1.6023   -0.2796 C.ar      1 <0>        -0.1244
     29 C21        -9.8430   -1.4427    0.9652 C.ar      1 <0>        -0.0194
     30 C22        -8.7158   -2.1738    1.3010 C.ar      1 <0>         0.0022
     31 Cl1        -7.9895   -1.9804    2.8659 Cl        1 <0>        -0.0681
     32 Cl2       -10.5302   -0.3318    2.1086 Cl        1 <0>        -0.0760
     33 H3          1.0039    1.9031    0.0027 H         1 <0>         0.0581
     34 H4         -0.5459    1.8868   -0.8726 H         1 <0>         0.0571
     35 H5         -0.5289    1.8773    0.9072 H         1 <0>         0.0575
     36 H6          0.5123   -0.3556   -0.8948 H         1 <0>         0.0705
     37 H7          0.5293   -0.3651    0.8851 H         1 <0>         0.0711
     38 H8         -1.9435   -0.1821    0.9097 H         1 <0>         0.0945
     39 H9         -1.9605   -0.1726   -0.8702 H         1 <0>         0.0930
     40 H10        -6.6844   -7.9794   -0.7377 H         1 <0>         0.0906
     41 H11        -5.5773   -8.2484    0.6303 H         1 <0>         0.0922
     42 H12        -9.1155   -7.4705   -0.2845 H         1 <0>         0.0864
     43 H13        -9.7023   -7.4207    1.3966 H         1 <0>         0.0836
     44 H14        -7.1122  -10.1273    1.3582 H         1 <0>         0.0582
     45 H15        -8.8254   -9.7805    1.6941 H         1 <0>         0.0573
     46 H16        -8.2258   -9.7628    0.0183 H         1 <0>         0.0561
     47 H17        -7.0839   -6.6589    2.7344 H         1 <0>         0.0637
     48 H18        -8.1588   -7.9687    3.2796 H         1 <0>         0.0543
     49 H19        -6.4415   -8.3044    2.9533 H         1 <0>         0.0558
     50 H20        -8.3206   -3.9026   -1.5690 H         1 <0>         0.1158
     51 H21       -10.3308   -2.6114   -2.1618 H         1 <0>         0.1234
     52 H22       -11.3057   -1.0354   -0.5407 H         1 <0>         0.1276
@<TRIPOS>BOND
     1    1    2 1
     2    1   33 1
     3    1   34 1
     4    1   35 1
     5    2    3 1
     6    2   36 1
     7    2   37 1
     8    3    4 1
     9    3   38 1
    10    3   39 1
    11    4    5 1
    12    5   24 1
    13    5    6 2
    14    6    7 1
    15    7    8 2
    16    7    9 1
    17    9   10 1
    18    9   23 1
    19    9   11 1
    20   11   12 1
    21   11   13 1
    22   11   25 1
    23   13   18 2
    24   13   14 1
    25   14   15 1
    26   14   22 2
    27   15   16 1
    28   15   40 1
    29   15   41 1
    30   16   17 1
    31   16   20 1
    32   16   21 1
    33   17   18 1
    34   17   42 1
    35   17   43 1
    36   18   19 1
    37   20   44 1
    38   20   45 1
    39   20   46 1
    40   21   47 1
    41   21   48 1
    42   21   49 1
    43   22   23 1
    44   23   24 2
    45   25   30 ar
    46   25   26 ar
    47   26   27 ar
    48   26   50 1
    49   27   28 ar
    50   27   51 1
    51   28   29 ar
    52   28   52 1
    53   29   30 ar
    54   29   32 1
    55   30   31 1
@<TRIPOS>MOLECULE
ZINC05817202
   50    53     0     0     0
SMALL
USER_CHARGES
(5R)-4-benzoyl-5-(4-tert-butylphenyl)-3-hydroxy-1-(1,3,4-thiadiazol-2-yl)-5H-pyrrol-2-one
@<TRIPOS>ATOM
      1 C1          5.7612    1.6535    5.3048 C.3       1 <0>        -0.1384
      2 C2          5.1179    0.3033    4.9820 C.3       1 <0>        -0.0267
      3 C3          4.1675   -0.0924    6.1138 C.3       1 <0>        -0.1447
      4 C4          6.2088   -0.7596    4.8369 C.3       1 <0>        -0.1372
      5 C5          4.3460    0.4103    3.6921 C.ar      1 <0>        -0.0745
      6 C6          4.9976    0.7578    2.5235 C.ar      1 <0>        -0.1147
      7 C7          4.2895    0.8563    1.3404 C.ar      1 <0>        -0.0959
      8 C8          2.9298    0.6074    1.3259 C.ar      1 <0>        -0.0769
      9 C9          2.2773    0.2651    2.4955 C.ar      1 <0>        -0.0893
     10 C10         2.9864    0.1614    3.6776 C.ar      1 <0>        -0.1207
     11 C11         2.1577    0.7153    0.0362 C.3       1 <0>         0.2670
     12 H1          2.8773    0.7144   -0.7958 H         1 <0>         0.0883
     13 C12         1.2987    1.9582    0.0458 C.2       1 <0>        -0.4777
     14 C13         0.0139    1.5457   -0.0710 C.2       1 <0>         0.2697
     15 C14        -0.0163    0.0714   -0.1583 C.2       1 <0>         0.5109
     16 O1         -1.0231   -0.6000   -0.2696 O.2       1 <0>        -0.4845
     17 N1          1.2352   -0.4184   -0.0960 N.am      1 <0>        -0.4983
     18 C15         1.5910   -1.7596   -0.1470 C.2       1 <0>         0.3382
     19 N2          2.7883   -2.3275   -0.0923 N.2       1 <0>        -0.3235
     20 N3          2.9344   -3.5788   -0.1534 N.2       1 <0>        -0.2495
     21 C16         1.9101   -4.4000   -0.2753 C.2       1 <0>        -0.0051
     22 S1          0.5645   -3.2190   -0.2978 S.3       1 <0>         0.0042
     23 O2         -1.0691    2.3555   -0.1077 O.3       1 <0>        -0.6345
     24 C17         1.7654    3.3426    0.1591 C.2       1 <0>         0.5067
     25 O3          1.4828    4.0013    1.1422 O.2       1 <0>        -0.4641
     26 C18         2.5800    3.9389   -0.9213 C.ar      1 <0>        -0.1384
     27 C19         2.8113    3.2266   -2.1000 C.ar      1 <0>        -0.0656
     28 C20         3.5672    3.7912   -3.1061 C.ar      1 <0>        -0.1373
     29 C21         4.1050    5.0561   -2.9451 C.ar      1 <0>        -0.1051
     30 C22         3.8849    5.7650   -1.7772 C.ar      1 <0>        -0.1374
     31 C23         3.1261    5.2147   -0.7653 C.ar      1 <0>        -0.0730
     32 H2          6.4445    1.9380    4.4911 H         1 <0>         0.0569
     33 H3          6.3246    1.5754    6.2463 H         1 <0>         0.0543
     34 H4          4.9769    2.4177    5.4091 H         1 <0>         0.0575
     35 H5          3.7050   -1.0631    5.8817 H         1 <0>         0.0574
     36 H6          3.3832    0.6718    6.2181 H         1 <0>         0.0595
     37 H7          4.7310   -0.1704    7.0553 H         1 <0>         0.0546
     38 H8          5.7464   -1.7303    4.6048 H         1 <0>         0.0558
     39 H9          6.7723   -0.8376    5.7784 H         1 <0>         0.0541
     40 H10         6.8921   -0.4750    4.0232 H         1 <0>         0.0570
     41 H11         6.0598    0.9526    2.5349 H         1 <0>         0.1167
     42 H12         4.7984    1.1281    0.4275 H         1 <0>         0.1193
     43 H13         1.2142    0.0749    2.4850 H         1 <0>         0.1088
     44 H14         2.4772   -0.1097    4.5907 H         1 <0>         0.1202
     45 H15         1.8885   -5.4780   -0.3383 H         1 <0>         0.2337
     46 H16         2.3955    2.2377   -2.2253 H         1 <0>         0.1311
     47 H17         3.7434    3.2431   -4.0199 H         1 <0>         0.1222
     48 H18         4.6996    5.4918   -3.7344 H         1 <0>         0.1190
     49 H19         4.3079    6.7515   -1.6578 H         1 <0>         0.1213
     50 H20         2.9545    5.7693    0.1454 H         1 <0>         0.1289
@<TRIPOS>BOND
     1    1    2 1
     2    1   32 1
     3    1   33 1
     4    1   34 1
     5    2    3 1
     6    2    4 1
     7    2    5 1
     8    3   35 1
     9    3   36 1
    10    3   37 1
    11    4   38 1
    12    4   39 1
    13    4   40 1
    14    5   10 ar
    15    5    6 ar
    16    6    7 ar
    17    6   41 1
    18    7    8 ar
    19    7   42 1
    20    8    9 ar
    21    8   11 1
    22    9   10 ar
    23    9   43 1
    24   10   44 1
    25   11   12 1
    26   11   17 1
    27   11   13 1
    28   13   14 2
    29   13   24 1
    30   14   15 1
    31   14   23 1
    32   15   16 2
    33   15   17 am
    34   17   18 1
    35   18   22 1
    36   18   19 2
    37   19   20 1
    38   20   21 2
    39   21   22 1
    40   21   45 1
    41   24   25 2
    42   24   26 1
    43   26   31 ar
    44   26   27 ar
    45   27   28 ar
    46   27   46 1
    47   28   29 ar
    48   28   47 1
    49   29   30 ar
    50   29   48 1
    51   30   31 ar
    52   30   49 1
    53   31   50 1
@<TRIPOS>MOLECULE
ZINC33698046
   51    54     0     0     0
SMALL
USER_CHARGES
(4E,5R)-5-(3,4-dichlorophenyl)-4-[(2,5-dimethylphenyl)-hydroxy-methylene]-1-(4-pyridylmethyl)pyrrolidine-2,3-dione
@<TRIPOS>ATOM
      1 C1          5.3616    1.2673   -8.4950 C.3       1 <0>        -0.1091
      2 C2          5.5955    2.5340   -7.7128 C.ar      1 <0>        -0.0991
      3 C3          6.5306    3.4548   -8.1535 C.ar      1 <0>        -0.1226
      4 C4          6.7523    4.6212   -7.4423 C.ar      1 <0>        -0.1267
      5 C5          6.0423    4.8744   -6.2875 C.ar      1 <0>        -0.0657
      6 C6          5.0964    3.9490   -5.8357 C.ar      1 <0>        -0.0559
      7 C7          4.8822    2.7699   -6.5569 C.ar      1 <0>        -0.0725
      8 C8          4.3334    4.2119   -4.6028 C.2       1 <0>         0.4047
      9 C9          4.5314    3.4239   -3.4879 C.2       1 <0>        -0.5005
     10 C10         3.7506    3.4677   -2.1947 C.3       1 <0>         0.2681
     11 H1          3.8150    4.4523   -1.7084 H         1 <0>         0.0777
     12 N1          4.3314    2.4463   -1.3187 N.am      1 <0>        -0.5984
     13 C11         5.3441    1.8421   -1.9625 C.2       1 <0>         0.4789
     14 O1          6.0301    0.9531   -1.5011 O.2       1 <0>        -0.5257
     15 C12         5.4996    2.4195   -3.3254 C.2       1 <0>         0.3721
     16 O2          6.3257    2.0828   -4.1540 O.3       1 <0>        -0.4884
     17 C13         3.8840    2.1381    0.0419 C.3       1 <0>         0.1655
     18 C14         2.8205    1.0715   -0.0086 C.ar      1 <0>        -0.0635
     19 C15         1.4804    1.4101   -0.1183 C.ar      1 <0>        -0.1410
     20 C16         0.5333    0.4046   -0.1626 C.ar      1 <0>         0.0959
     21 N2          0.8917   -0.8629   -0.1014 N.ar      1 <0>        -0.4816
     22 C17         2.1563   -1.2217    0.0037 C.ar      1 <0>         0.0893
     23 C18         3.1589   -0.2716    0.0532 C.ar      1 <0>        -0.1501
     24 C19         2.2991    3.1582   -2.4565 C.ar      1 <0>        -0.0503
     25 C20         1.8992    1.8525   -2.6733 C.ar      1 <0>        -0.0750
     26 C21         0.5677    1.5668   -2.9087 C.ar      1 <0>        -0.1041
     27 C22        -0.3644    2.5888   -2.9380 C.ar      1 <0>        -0.0357
     28 C23         0.0368    3.8968   -2.7262 C.ar      1 <0>        -0.0316
     29 C24         1.3693    4.1804   -2.4855 C.ar      1 <0>        -0.0653
     30 Cl1        -1.1316    5.1802   -2.7621 Cl        1 <0>        -0.0619
     31 Cl2        -2.0360    2.2312   -3.2408 Cl        1 <0>        -0.0655
     32 O3          3.4406    5.2238   -4.5643 O.2       1 <0>        -0.6264
     33 C25         6.2848    6.1453   -5.5148 C.3       1 <0>        -0.1156
     34 H2          6.0164    1.2559   -9.3788 H         1 <0>         0.0592
     35 H3          4.3106    1.2238   -8.8167 H         1 <0>         0.0628
     36 H4          5.5871    0.3976   -7.8604 H         1 <0>         0.0660
     37 H5          7.0898    3.2622   -9.0571 H         1 <0>         0.1127
     38 H6          7.4835    5.3348   -7.7923 H         1 <0>         0.1149
     39 H7          4.1565    2.0483   -6.2118 H         1 <0>         0.1124
     40 H8          4.7370    1.7776    0.6355 H         1 <0>         0.0950
     41 H9          3.4713    3.0457    0.5066 H         1 <0>         0.0920
     42 H10         1.1806    2.4464   -0.1692 H         1 <0>         0.1297
     43 H11        -0.5123    0.6599   -0.2530 H         1 <0>         0.1500
     44 H12         2.4116   -2.2700    0.0512 H         1 <0>         0.1519
     45 H13         4.1928   -0.5717    0.1393 H         1 <0>         0.1358
     46 H14         2.6273    1.0550   -2.6549 H         1 <0>         0.1224
     47 H15         0.2554    0.5462   -3.0738 H         1 <0>         0.1321
     48 H16         1.6829    5.2005   -2.3198 H         1 <0>         0.1431
     49 H17         5.6300    6.1678   -4.6312 H         1 <0>         0.0780
     50 H18         6.0654    7.0118   -6.1560 H         1 <0>         0.0623
     51 H19         7.3360    6.1840   -5.1932 H         1 <0>         0.0597
@<TRIPOS>BOND
     1    1    2 1
     2    1   34 1
     3    1   35 1
     4    1   36 1
     5    2    7 ar
     6    2    3 ar
     7    3    4 ar
     8    3   37 1
     9    4    5 ar
    10    4   38 1
    11    5    6 ar
    12    5   33 1
    13    6    7 ar
    14    6    8 1
    15    7   39 1
    16    8    9 1
    17    8   32 2
    18    9   15 2
    19    9   10 1
    20   10   11 1
    21   10   12 1
    22   10   24 1
    23   12   13 am
    24   12   17 1
    25   13   14 2
    26   13   15 1
    27   15   16 1
    28   17   18 1
    29   17   40 1
    30   17   41 1
    31   18   23 ar
    32   18   19 ar
    33   19   20 ar
    34   19   42 1
    35   20   21 ar
    36   20   43 1
    37   21   22 ar
    38   22   23 ar
    39   22   44 1
    40   23   45 1
    41   24   29 ar
    42   24   25 ar
    43   25   26 ar
    44   25   46 1
    45   26   27 ar
    46   26   47 1
    47   27   28 ar
    48   27   31 1
    49   28   29 ar
    50   28   30 1
    51   29   48 1
    52   33   49 1
    53   33   50 1
    54   33   51 1
@<TRIPOS>MOLECULE
ZINC38618318
   57    59     0     0     0
SMALL
USER_CHARGES

@<TRIPOS>ATOM
      1 C1         -5.5224   -1.9438    3.8811 C.3       1 <0>        -0.1160
      2 C2         -4.4599   -2.5321    2.9888 C.ar      1 <0>        -0.0429
      3 C3         -4.7724   -2.9016    1.6937 C.ar      1 <0>        -0.1663
      4 C4         -3.7998   -3.4412    0.8724 C.ar      1 <0>        -0.0462
      5 C5         -2.5129   -3.6128    1.3444 C.ar      1 <0>        -0.1618
      6 C6         -2.1967   -3.2428    2.6436 C.ar      1 <0>         0.1451
      7 C7         -3.1731   -2.6964    3.4638 C.ar      1 <0>        -0.2192
      8 O1         -0.9315   -3.4107    3.1103 O.3       1 <0>        -0.2916
      9 C8         -0.6525   -2.9151    4.4212 C.3       1 <0>         0.0398
     10 H1         -1.2289   -2.0067    4.5966 H         1 <0>         0.0953
     11 C9         -1.0376   -3.9717    5.4586 C.3       1 <0>        -0.1635
     12 C10         0.8180   -2.6075    4.5396 C.2       1 <0>         0.4585
     13 O2          1.6034   -3.0834    3.7460 O.2       1 <0>        -0.4366
     14 C11         1.2989   -1.7354    5.6109 C.2       1 <0>        -0.4119
     15 C12         0.9239   -0.3789    5.6355 C.2       1 <0>         0.1393
     16 C13         1.3940    0.4285    6.6646 C.2       1 <0>        -0.3081
     17 C14         2.2619   -0.1619    7.6851 C.2       1 <0>         0.5735
     18 O3          2.6861    0.5252    8.5970 O.2       1 <0>        -0.5545
     19 N1          2.5900   -1.4656    7.6142 N.am      1 <0>        -0.5208
     20 C15         2.1268   -2.2514    6.6141 C.2       1 <0>         0.5268
     21 O4          2.4729   -3.5517    6.5813 O.3       1 <0>        -0.6398
     22 C16         3.4592   -2.0455    8.6411 C.3       1 <0>         0.1370
     23 C17         2.7980   -1.8963   10.0127 C.3       1 <0>        -0.1337
     24 C18         3.7057   -2.5020   11.0851 C.3       1 <0>        -0.1114
     25 C19         5.0511   -1.7732   11.0855 C.3       1 <0>        -0.1188
     26 C20         5.7123   -1.9225    9.7139 C.3       1 <0>        -0.1114
     27 C21         4.8045   -1.3168    8.6415 C.3       1 <0>        -0.1348
     28 C22         1.0360    1.8137    6.7253 C.1       1 <0>         0.3142
     29 N2          0.7521    2.9125    6.7735 N.1       1 <0>        -0.4926
     30 C23         0.0286    0.1884    4.5642 C.3       1 <0>        -0.1344
     31 C24        -4.1439   -3.8428   -0.5388 C.3       1 <0>        -0.1130
     32 H2         -5.5358   -0.8602    3.7644 H         1 <0>         0.0720
     33 H3         -6.4950   -2.3511    3.6050 H         1 <0>         0.0660
     34 H4         -5.3048   -2.1948    4.9193 H         1 <0>         0.0672
     35 H5         -5.7781   -2.7689    1.3230 H         1 <0>         0.1191
     36 H6         -1.7536   -4.0349    0.7027 H         1 <0>         0.1289
     37 H7         -2.9284   -2.4034    4.4741 H         1 <0>         0.1308
     38 H8         -0.3998   -4.8475    5.3392 H         1 <0>         0.0727
     39 H9         -0.9081   -3.5617    6.4602 H         1 <0>         0.0811
     40 H10        -2.0794   -4.2587    5.3154 H         1 <0>         0.0661
     41 H11         3.6186   -3.1025    8.4276 H         1 <0>         0.1072
     42 H12         2.6386   -0.8394   10.2262 H         1 <0>         0.0879
     43 H13         1.8395   -2.4155   10.0124 H         1 <0>         0.0585
     44 H14         3.2347   -2.3957   12.0623 H         1 <0>         0.0607
     45 H15         3.8651   -3.5589   10.8716 H         1 <0>         0.0602
     46 H16         4.8917   -0.7163   11.2990 H         1 <0>         0.0638
     47 H17         5.6978   -2.2047   11.8495 H         1 <0>         0.0571
     48 H18         6.6707   -1.4033    9.7141 H         1 <0>         0.0609
     49 H19         5.8717   -2.9794    9.5004 H         1 <0>         0.0603
     50 H20         5.2756   -1.4231    7.6643 H         1 <0>         0.0592
     51 H21         4.6451   -0.2599    8.8549 H         1 <0>         0.0878
     52 H22        -1.0076    0.1541    4.9009 H         1 <0>         0.0824
     53 H23         0.3115    1.2218    4.3638 H         1 <0>         0.0752
     54 H24         0.1342   -0.4004    3.6530 H         1 <0>         0.0699
     55 H25        -3.9812   -2.9973   -1.2071 H         1 <0>         0.0713
     56 H26        -3.5098   -4.6750   -0.8446 H         1 <0>         0.0674
     57 H27        -5.1897   -4.1467   -0.5853 H         1 <0>         0.0661
@<TRIPOS>BOND
     1    1    2 1
     2    1   32 1
     3    1   33 1
     4    1   34 1
     5    2    7 ar
     6    2    3 ar
     7    3    4 ar
     8    3   35 1
     9    4    5 ar
    10    4   31 1
    11    5    6 ar
    12    5   36 1
    13    6    7 ar
    14    6    8 1
    15    7   37 1
    16    8    9 1
    17    9   10 1
    18    9   11 1
    19    9   12 1
    20   11   38 1
    21   11   39 1
    22   11   40 1
    23   12   13 2
    24   12   14 1
    25   14   20 2
    26   14   15 1
    27   15   16 2
    28   15   30 1
    29   16   17 1
    30   16   28 1
    31   17   18 2
    32   17   19 am
    33   19   20 1
    34   19   22 1
    35   20   21 1
    36   22   27 1
    37   22   23 1
    38   22   41 1
    39   23   24 1
    40   23   42 1
    41   23   43 1
    42   24   25 1
    43   24   44 1
    44   24   45 1
    45   25   26 1
    46   25   46 1
    47   25   47 1
    48   26   27 1
    49   26   48 1
    50   26   49 1
    51   27   50 1
    52   27   51 1
    53   28   29 3
    54   30   52 1
    55   30   53 1
    56   30   54 1
    57   31   55 1
    58   31   56 1
    59   31   57 1
@<TRIPOS>MOLECULE
ZINC41077937
   50    54     0     0     0
SMALL
USER_CHARGES

@<TRIPOS>ATOM
      1 C1         -1.2716    1.4407    0.1698 C.3       1 <0>        -0.1090
      2 C2         -1.2774   -0.0653    0.2248 C.ar      1 <0>        -0.0937
      3 C3         -0.1660   -0.7753   -0.1909 C.ar      1 <0>        -0.1135
      4 C4         -0.1685   -2.1556   -0.1422 C.ar      1 <0>        -0.1000
      5 C5         -1.2884   -2.8302    0.3253 C.ar      1 <0>         0.1457
      6 C6         -2.4027   -2.1146    0.7425 C.ar      1 <0>        -0.0922
      7 C7         -2.3921   -0.7342    0.6962 C.ar      1 <0>        -0.1131
      8 N1         -1.2942   -4.2305    0.3756 N.am      1 <0>        -0.5476
      9 C8         -0.4940   -4.8735    1.2535 C.2       1 <0>         0.5637
     10 O1          0.2365   -4.2549    2.0064 O.2       1 <0>        -0.5144
     11 C9         -0.5322   -6.3421    1.2727 C.2       1 <0>        -0.2118
     12 C10         0.2693   -7.0785    2.1566 C.2       1 <0>         0.0558
     13 C11         0.3661   -8.4598    2.0214 C.2       1 <0>         0.0496
     14 C12         0.3682   -9.3877    3.0640 C.2       1 <0>        -0.1792
     15 C13         0.4816  -10.6423    2.4834 C.2       1 <0>        -0.1424
     16 C14         0.5455  -10.4545    1.1140 C.2       1 <0>        -0.0651
     17 O2          0.4689   -9.1396    0.8557 O.3       1 <0>        -0.0770
     18 S1          0.6955  -11.7307   -0.0916 S.3       1 <0>         0.1137
     19 C15         2.4276  -11.8230   -0.4014 C.ar      1 <0>        -0.1053
     20 C16         3.3090  -11.0641    0.3407 C.ar      1 <0>        -0.1155
     21 C17         4.6782  -11.1303    0.1042 C.ar      1 <0>        -0.0958
     22 C18         5.1863  -11.9429   -0.8637 C.ar      1 <0>        -0.1143
     23 C19         4.3229  -12.7324   -1.6421 C.ar      1 <0>        -0.0390
     24 C20         2.9269  -12.6786   -1.4074 C.ar      1 <0>        -0.0286
     25 C21         2.0665  -13.4713   -2.1822 C.ar      1 <0>        -0.1012
     26 C22         2.5830  -14.2849   -3.1444 C.ar      1 <0>        -0.1149
     27 C23         3.9564  -14.3433   -3.3722 C.ar      1 <0>        -0.1146
     28 C24         4.8196  -13.5796   -2.6479 C.ar      1 <0>        -0.1075
     29 C25        -1.4109   -6.9881    0.3638 C.2       1 <0>         0.4802
     30 O3         -1.4925   -8.3361    0.3326 O.3       1 <0>        -0.6116
     31 N2         -2.1494   -6.2528   -0.4522 N.2       1 <0>        -0.6576
     32 C26        -2.0994   -4.9241   -0.4457 C.2       1 <0>         0.6655
     33 O4         -2.8109   -4.3096   -1.2214 O.2       1 <0>        -0.5589
     34 H1         -0.8871    1.8371    1.1096 H         1 <0>         0.0673
     35 H2         -0.6358    1.7718   -0.6513 H         1 <0>         0.0640
     36 H3         -2.2875    1.8024    0.0114 H         1 <0>         0.0644
     37 H4          0.7048   -0.2499   -0.5544 H         1 <0>         0.1236
     38 H5          0.6996   -2.7095   -0.4676 H         1 <0>         0.1199
     39 H6         -3.2752   -2.6366    1.1066 H         1 <0>         0.1226
     40 H7         -3.2569   -0.1768    1.0246 H         1 <0>         0.1242
     41 H8          0.8115   -6.5735    2.9423 H         1 <0>         0.1650
     42 H9          0.2958   -9.1706    4.1194 H         1 <0>         0.1583
     43 H10         0.5142  -11.5886    3.0029 H         1 <0>         0.1576
     44 H11         2.9317  -10.4111    1.1138 H         1 <0>         0.1239
     45 H12         5.3494  -10.5271    0.6975 H         1 <0>         0.1259
     46 H13         6.2523  -11.9802   -1.0330 H         1 <0>         0.1278
     47 H14         0.9999  -13.4366   -2.0161 H         1 <0>         0.1296
     48 H15         1.9186  -14.8939   -3.7393 H         1 <0>         0.1251
     49 H16         4.3409  -14.9972   -4.1409 H         1 <0>         0.1231
     50 H17         5.8817  -13.6342   -2.8361 H         1 <0>         0.1274
@<TRIPOS>BOND
     1    1    2 1
     2    1   34 1
     3    1   35 1
     4    1   36 1
     5    2    7 ar
     6    2    3 ar
     7    3    4 ar
     8    3   37 1
     9    4    5 ar
    10    4   38 1
    11    5    6 ar
    12    5    8 1
    13    6    7 ar
    14    6   39 1
    15    7   40 1
    16    8   32 am
    17    8    9 am
    18    9   10 2
    19    9   11 1
    20   11   12 2
    21   11   29 1
    22   12   13 1
    23   12   41 1
    24   13   17 1
    25   13   14 2
    26   14   15 1
    27   14   42 1
    28   15   16 2
    29   15   43 1
    30   16   17 1
    31   16   18 1
    32   18   19 1
    33   19   24 ar
    34   19   20 ar
    35   20   21 ar
    36   20   44 1
    37   21   22 ar
    38   21   45 1
    39   22   23 ar
    40   22   46 1
    41   23   28 ar
    42   23   24 ar
    43   24   25 ar
    44   25   26 ar
    45   25   47 1
    46   26   27 ar
    47   26   48 1
    48   27   28 ar
    49   27   49 1
    50   28   50 1
    51   29   30 1
    52   29   31 2
    53   31   32 1
    54   32   33 2
@<TRIPOS>MOLECULE
ZINC39730033
   56    59     0     0     0
SMALL
USER_CHARGES

@<TRIPOS>ATOM
      1 C1         -0.0187    1.5258    0.0104 C.3       1 <0>        -0.1492
      2 C2          0.0021   -0.0041    0.0020 C.3       1 <0>         0.0568
      3 O1          0.6709   -0.4649   -1.1737 O.3       1 <0>        -0.3250
      4 C3          0.7768   -1.8100   -1.3361 C.ar      1 <0>         0.1016
      5 C4          0.2427   -2.6687   -0.3864 C.ar      1 <0>        -0.1952
      6 C5          0.3511   -4.0357   -0.5541 C.ar      1 <0>        -0.0572
      7 C6          0.9917   -4.5482   -1.6671 C.ar      1 <0>        -0.0003
      8 C7          1.5253   -3.6944   -2.6148 C.ar      1 <0>        -0.0717
      9 C8          1.4140   -2.3268   -2.4548 C.ar      1 <0>        -0.1438
     10 C9          1.1090   -6.0397   -1.8472 C.3       1 <0>         0.0691
     11 H1          0.6350   -6.5497   -1.0085 H         1 <0>         0.0592
     12 C10         2.5804   -6.4345   -1.9242 C.3       1 <0>        -0.2126
     13 H2          3.0653   -5.7973   -2.6638 H         1 <0>         0.1156
     14 C11         2.6963   -7.8609   -2.3861 C.2       1 <0>         0.4864
     15 N1          3.5296   -8.6916   -1.7943 N.2       1 <0>        -0.6156
     16 C12         4.2164   -8.3487   -0.7048 C.2       1 <0>         0.4329
     17 N2          4.0641   -7.1719   -0.1095 N.2       1 <0>        -0.6855
     18 C13         3.2790   -6.2461   -0.6148 C.2       1 <0>         0.5154
     19 O2          3.1295   -5.2070   -0.0011 O.2       1 <0>        -0.4932
     20 S1          5.3678   -9.4992   -0.0299 S.3       1 <0>        -0.0112
     21 C14         6.0572   -8.6369    1.4095 C.3       1 <0>        -0.1090
     22 C15         7.0857   -9.5361    2.0983 C.3       1 <0>        -0.1361
     23 N3          1.9026   -8.2994   -3.3587 N.2       1 <0>        -0.6038
     24 C16         0.8862   -7.5938   -3.8158 C.2       1 <0>         0.3006
     25 C17         0.4384   -6.4523   -3.1410 C.2       1 <0>        -0.3873
     26 C18        -0.5809   -5.7031   -3.6179 C.2       1 <0>         0.3434
     27 O3         -0.9504   -4.5989   -2.9437 O.3       1 <0>        -0.5733
     28 C19        -1.3134   -6.0666   -4.8792 C.3       1 <0>        -0.1226
     29 C20        -0.3846   -6.8535   -5.8072 C.3       1 <0>        -0.0573
     30 C21         0.1573   -8.0693   -5.0494 C.3       1 <0>        -0.0719
     31 C22        -1.1648   -7.3211   -7.0375 C.3       1 <0>        -0.1374
     32 C23         0.7802   -5.9624   -6.2431 C.3       1 <0>        -0.1457
     33 H3          1.0039    1.9031    0.0027 H         1 <0>         0.0631
     34 H4         -0.5459    1.8868   -0.8726 H         1 <0>         0.0631
     35 H5         -0.5289    1.8773    0.9072 H         1 <0>         0.0727
     36 H6          0.5293   -0.3651    0.8851 H         1 <0>         0.0563
     37 H7         -1.0205   -0.3814    0.0098 H         1 <0>         0.0563
     38 H8         -0.2572   -2.2689    0.4835 H         1 <0>         0.1117
     39 H9         -0.0645   -4.7046    0.1850 H         1 <0>         0.1035
     40 H10         2.0255   -4.0972   -3.4831 H         1 <0>         0.1058
     41 H11         1.8270   -1.6604   -3.1976 H         1 <0>         0.1136
     42 H12         6.5401   -7.7155    1.0841 H         1 <0>         0.0926
     43 H13         5.2557   -8.3996    2.1091 H         1 <0>         0.0939
     44 H14         6.6028  -10.4575    2.4237 H         1 <0>         0.0637
     45 H15         7.8872   -9.7734    1.3987 H         1 <0>         0.0632
     46 H16         7.5000   -9.0180    2.9632 H         1 <0>         0.0736
     47 H17        -2.1811   -6.6779   -4.6312 H         1 <0>         0.0865
     48 H18        -1.6430   -5.1574   -5.3819 H         1 <0>         0.0825
     49 H19         0.8449   -8.6229   -5.6889 H         1 <0>         0.0883
     50 H20        -0.6715   -8.7144   -4.7576 H         1 <0>         0.0903
     51 H21        -1.5588   -6.4548   -7.5688 H         1 <0>         0.0572
     52 H22        -0.5017   -7.8812   -7.6969 H         1 <0>         0.0579
     53 H23        -1.9896   -7.9606   -6.7232 H         1 <0>         0.0566
     54 H24         1.3371   -5.6367   -5.3644 H         1 <0>         0.0608
     55 H25         1.4403   -6.5245   -6.9037 H         1 <0>         0.0554
     56 H26         0.3933   -5.0911   -6.7715 H         1 <0>         0.0554
@<TRIPOS>BOND
     1    1    2 1
     2    1   33 1
     3    1   34 1
     4    1   35 1
     5    2    3 1
     6    2   36 1
     7    2   37 1
     8    3    4 1
     9    4    9 ar
    10    4    5 ar
    11    5    6 ar
    12    5   38 1
    13    6    7 ar
    14    6   39 1
    15    7    8 ar
    16    7   10 1
    17    8    9 ar
    18    8   40 1
    19    9   41 1
    20   10   11 1
    21   10   25 1
    22   10   12 1
    23   12   13 1
    24   12   18 1
    25   12   14 1
    26   14   15 2
    27   14   23 1
    28   15   16 1
    29   16   17 2
    30   16   20 1
    31   17   18 1
    32   18   19 2
    33   20   21 1
    34   21   22 1
    35   21   42 1
    36   21   43 1
    37   22   44 1
    38   22   45 1
    39   22   46 1
    40   23   24 2
    41   24   30 1
    42   24   25 1
    43   25   26 2
    44   26   27 1
    45   26   28 1
    46   28   29 1
    47   28   47 1
    48   28   48 1
    49   29   30 1
    50   29   31 1
    51   29   32 1
    52   30   49 1
    53   30   50 1
    54   31   51 1
    55   31   52 1
    56   31   53 1
    57   32   54 1
    58   32   55 1
    59   32   56 1
@<TRIPOS>MOLECULE
ZINC09111553
   55    59     0     0     0
SMALL
USER_CHARGES

@<TRIPOS>ATOM
      1 C1          3.4065   -1.3994   -3.3808 C.ar      1 <0>        -0.1202
      2 C2          2.6851   -2.3283   -2.6543 C.ar      1 <0>        -0.1132
      3 C3          2.1697   -1.9891   -1.4173 C.ar      1 <0>        -0.0885
      4 C4          2.3760   -0.7212   -0.9066 C.ar      1 <0>        -0.1111
      5 C5          3.0981    0.2073   -1.6327 C.ar      1 <0>        -0.1118
      6 C6          3.6124   -0.1314   -2.8703 C.ar      1 <0>        -0.1299
      7 C7          1.8132   -0.3511    0.4415 C.3       1 <0>         0.1662
      8 N1          2.7476   -0.7651    1.4911 N.pl3     1 <0>        -0.6228
      9 C8          3.7269    0.1855    2.0339 C.3       1 <0>         0.1292
     10 C9          5.0797   -0.5328    2.1228 C.3       1 <0>        -0.1358
     11 C10         4.9568   -1.6937    3.1097 C.3       1 <0>        -0.0633
     12 C11         3.7653   -2.5500    2.7685 C.ar      1 <0>        -0.1796
     13 C12         2.7163   -2.0617    1.9917 C.ar      1 <0>         0.2470
     14 C13         1.6176   -2.8721    1.6982 C.ar      1 <0>        -0.2104
     15 C14         1.5589   -4.1495    2.1707 C.ar      1 <0>         0.0507
     16 C15         2.6104   -4.6503    2.9562 C.ar      1 <0>        -0.1391
     17 C16         3.7193   -3.8324    3.2421 C.ar      1 <0>        -0.0376
     18 C17         2.5600   -5.9776    3.4500 C.2       1 <0>         0.0766
     19 C18         2.2347   -7.0224    2.5981 C.2       1 <0>        -0.2648
     20 C19         2.1837   -6.8378    1.1397 C.2       1 <0>         0.4962
     21 O1          2.4548   -5.6373    0.5859 O.3       1 <0>        -0.6144
     22 N2          1.8667   -7.8753    0.3838 N.2       1 <0>        -0.6620
     23 C20         1.5951   -9.0705    0.9019 C.2       1 <0>         0.6712
     24 O2          1.3112   -9.9773    0.1396 O.2       1 <0>        -0.5664
     25 N3          1.6171   -9.3317    2.2170 N.am      1 <0>        -0.5501
     26 C21         1.9298   -8.3715    3.1135 C.2       1 <0>         0.5688
     27 O3          1.9548   -8.6093    4.3067 O.2       1 <0>        -0.5225
     28 C22         1.3165  -10.6243    2.6681 C.ar      1 <0>         0.1661
     29 C23         2.3294  -11.5616    2.8189 C.ar      1 <0>        -0.0920
     30 C24         2.0302  -12.8344    3.2640 C.ar      1 <0>        -0.1100
     31 C25         0.7231  -13.1764    3.5592 C.ar      1 <0>        -0.1107
     32 C26        -0.2886  -12.2460    3.4100 C.ar      1 <0>        -0.1088
     33 C27         0.0050  -10.9685    2.9708 C.ar      1 <0>        -0.0196
     34 Cl1        -1.2645   -9.7980    2.7909 Cl        1 <0>        -0.0618
     35 H1          3.8130   -1.6659   -4.3453 H         1 <0>         0.1175
     36 H2          2.5240   -3.3189   -3.0533 H         1 <0>         0.1244
     37 H3          1.6055   -2.7145   -0.8500 H         1 <0>         0.1306
     38 H4          3.2590    1.1980   -1.2339 H         1 <0>         0.1138
     39 H5          4.1762    0.5942   -3.4378 H         1 <0>         0.1160
     40 H6          1.6668    0.7279    0.4903 H         1 <0>         0.0796
     41 H7          0.8574   -0.8544    0.5868 H         1 <0>         0.0837
     42 H8          3.8098    1.0479    1.3724 H         1 <0>         0.0730
     43 H9          3.4152    0.5097    3.0268 H         1 <0>         0.0585
     44 H10         5.3552   -0.9161    1.1403 H         1 <0>         0.0692
     45 H11         5.8413    0.1645    2.4720 H         1 <0>         0.0714
     46 H12         5.8611   -2.3007    3.0666 H         1 <0>         0.0690
     47 H13         4.8393   -1.2982    4.1186 H         1 <0>         0.0645
     48 H14         0.8107   -2.4851    1.0936 H         1 <0>         0.1164
     49 H15         0.7075   -4.7736    1.9425 H         1 <0>         0.1139
     50 H16         4.5295   -4.2128    3.8466 H         1 <0>         0.1159
     51 H17         2.7749   -6.1755    4.4897 H         1 <0>         0.1296
     52 H18         3.3504  -11.2959    2.5879 H         1 <0>         0.1298
     53 H19         2.8181  -13.5638    3.3814 H         1 <0>         0.1311
     54 H20         0.4921  -14.1725    3.9068 H         1 <0>         0.1319
     55 H21        -1.3085  -12.5162    3.6406 H         1 <0>         0.1347
@<TRIPOS>BOND
     1    1    6 ar
     2    1    2 ar
     3    1   35 1
     4    2    3 ar
     5    2   36 1
     6    3    4 ar
     7    3   37 1
     8    4    5 ar
     9    4    7 1
    10    5    6 ar
    11    5   38 1
    12    6   39 1
    13    7    8 1
    14    7   40 1
    15    7   41 1
    16    8   13 1
    17    8    9 1
    18    9   10 1
    19    9   42 1
    20    9   43 1
    21   10   11 1
    22   10   44 1
    23   10   45 1
    24   11   12 1
    25   11   46 1
    26   11   47 1
    27   12   17 ar
    28   12   13 ar
    29   13   14 ar
    30   14   15 ar
    31   14   48 1
    32   15   16 ar
    33   15   49 1
    34   16   17 ar
    35   16   18 1
    36   17   50 1
    37   18   19 2
    38   18   51 1
    39   19   26 1
    40   19   20 1
    41   20   21 1
    42   20   22 2
    43   22   23 1
    44   23   24 2
    45   23   25 am
    46   25   26 am
    47   25   28 1
    48   26   27 2
    49   28   33 ar
    50   28   29 ar
    51   29   30 ar
    52   29   52 1
    53   30   31 ar
    54   30   53 1
    55   31   32 ar
    56   31   54 1
    57   32   33 ar
    58   32   55 1
    59   33   34 1
@<TRIPOS>MOLECULE
ZINC05995949
   35    37     0     0     0
SMALL
USER_CHARGES
4-[(3-bromo-4-methoxy-phenyl)methyleneamino]-5-(4-fluorophenyl)-1,2,4-triazole-3-thiol
@<TRIPOS>ATOM
      1 C1         -6.6969    6.3046   -0.0816 C.3       1 <0>         0.0192
      2 O1         -6.1691    5.9128    1.1872 O.3       1 <0>        -0.3008
      3 C2         -5.0764    5.1059    1.1780 C.ar      1 <0>         0.1756
      4 C3         -4.5248    4.7009   -0.0307 C.ar      1 <0>        -0.2096
      5 C4         -3.4128    3.8875   -0.0451 C.ar      1 <0>        -0.0091
      6 C5         -2.8463    3.4600    1.1591 C.ar      1 <0>        -0.0942
      7 C6         -3.4040    3.8696    2.3731 C.ar      1 <0>        -0.0121
      8 C7         -4.5134    4.6883    2.3781 C.ar      1 <0>        -0.1336
      9 Br1        -5.2694    5.2442    4.0198 Br        1 <0>        -0.0332
     10 C8         -1.6604    2.5848    1.1484 C.2       1 <0>         0.1761
     11 N1         -1.1438    2.2055    0.0197 N.2       1 <0>        -0.2278
     12 N2         -0.0166    1.3736    0.0096 N.pl3     1 <0>        -0.3633
     13 C9          0.0021   -0.0041    0.0020 C.2       1 <0>         0.1489
     14 N3          1.2631   -0.3719   -0.0120 N.2       1 <0>        -0.2620
     15 N4          2.0236    0.6639   -0.0137 N.2       1 <0>        -0.3286
     16 C10         1.2968    1.7592   -0.0009 C.2       1 <0>         0.3836
     17 S1          1.9004    3.4146    0.0014 S.3       1 <0>        -0.7838
     18 C11        -1.1741   -0.8988    0.0084 C.ar      1 <0>         0.0128
     19 C12        -2.4338   -0.3975    0.3413 C.ar      1 <0>        -0.0941
     20 C13        -3.5288   -1.2359    0.3409 C.ar      1 <0>        -0.1449
     21 C14        -3.3787   -2.5759    0.0208 C.ar      1 <0>         0.0892
     22 C15        -2.1296   -3.0800   -0.3052 C.ar      1 <0>        -0.1474
     23 C16        -1.0286   -2.2496   -0.3128 C.ar      1 <0>        -0.0611
     24 F1         -4.4539   -3.3939    0.0271 F         1 <0>        -0.1428
     25 H1         -7.5735    6.9517    0.0699 H         1 <0>         0.1056
     26 H2         -6.9953    5.4094   -0.6468 H         1 <0>         0.0611
     27 H3         -5.9282    6.8544   -0.6445 H         1 <0>         0.0619
     28 H4         -4.9653    5.0281   -0.9609 H         1 <0>         0.1429
     29 H5         -2.9821    3.5768   -0.9855 H         1 <0>         0.1476
     30 H6         -2.9671    3.5451    3.3059 H         1 <0>         0.1476
     31 H7         -1.2132    2.2531    2.0971 H         1 <0>         0.1272
     32 H8         -2.5513    0.6457    0.5949 H         1 <0>         0.1289
     33 H9         -4.5045   -0.8483    0.5943 H         1 <0>         0.1357
     34 H10        -2.0182   -4.1251   -0.5535 H         1 <0>         0.1389
     35 H11        -0.0555   -2.6436   -0.5663 H         1 <0>         0.1456
@<TRIPOS>BOND
     1    1    2 1
     2    1   25 1
     3    1   26 1
     4    1   27 1
     5    2    3 1
     6    3    8 ar
     7    3    4 ar
     8    4    5 ar
     9    4   28 1
    10    5    6 ar
    11    5   29 1
    12    6    7 ar
    13    6   10 1
    14    7    8 ar
    15    7   30 1
    16    8    9 1
    17   10   11 2
    18   10   31 1
    19   11   12 1
    20   12   16 1
    21   12   13 1
    22   13   14 2
    23   13   18 1
    24   14   15 1
    25   15   16 2
    26   16   17 1
    27   18   23 ar
    28   18   19 ar
    29   19   20 ar
    30   19   32 1
    31   20   21 ar
    32   20   33 1
    33   21   22 ar
    34   21   24 1
    35   22   23 ar
    36   22   34 1
    37   23   35 1
@<TRIPOS>MOLECULE
ZINC08656161
   45    49     0     0     0
SMALL
USER_CHARGES

@<TRIPOS>ATOM
      1 C1         -0.0157    1.3058    0.0092 C.2       1 <0>        -0.1727
      2 C2          0.0021   -0.0041    0.0020 C.2       1 <0>        -0.1348
      3 C3          1.3172   -0.7397   -0.0145 C.3       1 <0>        -0.0993
      4 S1          1.5068   -1.6740    1.5288 S.3       1 <0>         0.0367
      5 C4          3.0708   -2.4675    1.3573 C.2       1 <0>         0.1248
      6 N1          3.8840   -2.3711    0.3255 N.2       1 <0>        -0.2779
      7 N2          4.9410   -3.0846    0.5170 N.2       1 <0>        -0.3191
      8 C5          4.8634   -3.6829    1.6778 C.2       1 <0>         0.3979
      9 N3          3.6647   -3.2857    2.2569 N.pl3     1 <0>        -0.4486
     10 C6          3.2955   -3.7115    3.5104 C.2       1 <0>         0.4818
     11 C7          4.0884   -4.6582    4.0986 C.2       1 <0>        -0.3316
     12 C8          5.3143   -5.0093    3.4905 C.2       1 <0>         0.2718
     13 N4          5.6895   -4.5263    2.3102 N.2       1 <0>        -0.5223
     14 C9          6.2286   -5.9452    4.1874 C.ar      1 <0>        -0.0381
     15 C10         7.5713   -6.0262    3.8240 C.ar      1 <0>        -0.0718
     16 C11         8.4109   -6.8875    4.5016 C.ar      1 <0>        -0.1382
     17 C12         7.9216   -7.6642    5.5372 C.ar      1 <0>        -0.1111
     18 C13         6.5877   -7.5899    5.8966 C.ar      1 <0>        -0.1302
     19 C14         5.7378   -6.7385    5.2196 C.ar      1 <0>        -0.0463
     20 C15         4.2786   -6.6867    5.5685 C.3       1 <0>        -0.0709
     21 C16         3.7130   -5.2753    5.4154 C.3       1 <0>         0.0440
     22 C17         4.2474   -4.3917    6.5575 C.3       1 <0>        -0.1058
     23 C18         3.0063   -3.8471    7.2955 C.3       1 <0>        -0.1152
     24 C19         1.9298   -4.9347    7.0570 C.3       1 <0>        -0.1132
     25 C20         2.1866   -5.3680    5.5925 C.3       1 <0>        -0.1246
     26 O1          2.2279   -3.1521    4.1256 O.3       1 <0>        -0.6195
     27 H1          0.9122    1.8585    0.0033 H         1 <0>         0.0993
     28 H2         -0.9582    1.8330    0.0166 H         1 <0>         0.1028
     29 H3         -0.9258   -0.5567    0.0079 H         1 <0>         0.1175
     30 H4          1.3385   -1.4270   -0.8602 H         1 <0>         0.0962
     31 H5          2.1332   -0.0231   -0.1080 H         1 <0>         0.0910
     32 H6          7.9546   -5.4155    3.0200 H         1 <0>         0.1345
     33 H7          9.4522   -6.9548    4.2236 H         1 <0>         0.1205
     34 H8          8.5834   -8.3334    6.0670 H         1 <0>         0.1182
     35 H9          6.2113   -8.1987    6.7052 H         1 <0>         0.1217
     36 H10         3.7268   -7.3575    4.9069 H         1 <0>         0.0740
     37 H11         4.1378   -7.0132    6.5992 H         1 <0>         0.0746
     38 H12         4.8572   -4.9867    7.2350 H         1 <0>         0.0539
     39 H13         4.8315   -3.5686    6.1482 H         1 <0>         0.0554
     40 H14         3.2136   -3.7410    8.3601 H         1 <0>         0.0488
     41 H15         2.6929   -2.8944    6.8695 H         1 <0>         0.0694
     42 H16         2.0748   -5.7739    7.7371 H         1 <0>         0.0511
     43 H17         0.9287   -4.5188    7.1692 H         1 <0>         0.0563
     44 H18         1.6365   -4.7545    4.8965 H         1 <0>         0.1100
     45 H19         1.8701   -6.4149    5.4667 H         1 <0>         0.0390
@<TRIPOS>BOND
     1    1    2 2
     2    1   27 1
     3    1   28 1
     4    2    3 1
     5    2   29 1
     6    3    4 1
     7    3   30 1
     8    3   31 1
     9    4    5 1
    10    5    9 1
    11    5    6 2
    12    6    7 1
    13    7    8 2
    14    8   13 1
    15    8    9 1
    16    9   10 1
    17   10   11 2
    18   10   26 1
    19   11   21 1
    20   11   12 1
    21   12   13 2
    22   12   14 1
    23   14   19 ar
    24   14   15 ar
    25   15   16 ar
    26   15   32 1
    27   16   17 ar
    28   16   33 1
    29   17   18 ar
    30   17   34 1
    31   18   19 ar
    32   18   35 1
    33   19   20 1
    34   20   21 1
    35   20   36 1
    36   20   37 1
    37   21   25 1
    38   21   22 1
    39   22   23 1
    40   22   38 1
    41   22   39 1
    42   23   24 1
    43   23   40 1
    44   23   41 1
    45   24   25 1
    46   24   42 1
    47   24   43 1
    48   25   44 1
    49   25   45 1
@<TRIPOS>MOLECULE
ZINC57451897
   44    47     0     0     0
SMALL
USER_CHARGES

@<TRIPOS>ATOM
      1 C1         -0.0187    1.5258    0.0104 C.3       1 <0>        -0.1415
      2 C2          0.0021   -0.0041    0.0020 C.3       1 <0>         0.1528
      3 H1         -1.0196   -0.3838    0.0097 H         1 <0>         0.0533
      4 C3          0.7232   -0.4996   -1.2480 C.2       1 <0>        -0.1268
      5 C4          0.5554    0.0573   -2.5136 C.2       1 <0>        -0.1340
      6 C5          1.2372   -0.4446   -3.5697 C.2       1 <0>        -0.1918
      7 S1          2.1751   -1.7629   -2.8105 S.3       1 <0>         0.0223
      8 C6          1.5896   -1.5470   -1.1538 C.2       1 <0>        -0.1157
      9 C7          1.9351   -2.3105    0.0829 C.3       1 <0>        -0.0378
     10 C8          0.8959   -1.9536    1.1593 C.3       1 <0>         0.0581
     11 N1          0.7189   -0.4938    1.1864 N.3       1 <0>        -0.5501
     12 C9          0.0501   -0.0638    2.4216 C.3       1 <0>         0.3155
     13 N2          0.9094   -0.3598    3.5706 N.pl3     1 <0>        -0.3890
     14 C10         0.9286   -1.5019    4.2930 C.2       1 <0>         0.4434
     15 S2         -0.0853   -2.9168    4.0196 S.3       1 <0>        -0.7981
     16 N3          1.8370   -1.3728    5.2352 N.2       1 <0>        -0.5355
     17 C11         2.4137   -0.1656    5.1429 C.2       1 <0>         0.2470
     18 N4          1.8792    0.4849    4.1341 N.2       1 <0>        -0.3379
     19 C12         3.4844    0.3490    6.0311 C.ar      1 <0>        -0.0116
     20 C13         4.0002    1.6283    5.8363 C.ar      1 <0>        -0.0424
     21 C14         4.9970    2.1029    6.6659 C.ar      1 <0>        -0.0804
     22 C15         5.4860    1.3109    7.6914 C.ar      1 <0>        -0.0658
     23 C16         4.9810    0.0404    7.8922 C.ar      1 <0>        -0.2096
     24 C17         3.9763   -0.4454    7.0708 C.ar      1 <0>         0.1698
     25 O1          3.4748   -1.6920    7.2717 O.3       1 <0>        -0.2609
     26 C18         4.0257   -2.4463    8.3532 C.3       1 <0>         0.0220
     27 Cl1         5.6397    3.6970    6.4222 Cl        1 <0>        -0.0785
     28 H2          1.0039    1.9031    0.0027 H         1 <0>         0.0669
     29 H3         -0.5459    1.8868   -0.8726 H         1 <0>         0.0601
     30 H4         -0.5289    1.8773    0.9072 H         1 <0>         0.0596
     31 H5         -0.1190    0.8893   -2.6523 H         1 <0>         0.1287
     32 H6          1.2189   -0.1303   -4.6028 H         1 <0>         0.1821
     33 H7          1.9019   -3.3805   -0.1222 H         1 <0>         0.0833
     34 H8          2.9316   -2.0297    0.4240 H         1 <0>         0.0846
     35 H9         -0.0547   -2.4310    0.9218 H         1 <0>         0.0460
     36 H10         1.2460   -2.2964    2.1329 H         1 <0>         0.1177
     37 H11        -0.1406    1.0085    2.3772 H         1 <0>         0.0965
     38 H12        -0.8948   -0.5968    2.5277 H         1 <0>         0.0762
     39 H13         3.6211    2.2482    5.0372 H         1 <0>         0.1458
     40 H14         6.2656    1.6878    8.3368 H         1 <0>         0.1332
     41 H15         5.3667   -0.5729    8.6931 H         1 <0>         0.1387
     42 H16         3.5382   -3.4200    8.4025 H         1 <0>         0.1017
     43 H17         5.0952   -2.5831    8.1930 H         1 <0>         0.0510
     44 H18         3.8640   -1.9112    9.2889 H         1 <0>         0.0509
@<TRIPOS>BOND
     1    1    2 1
     2    1   28 1
     3    1   29 1
     4    1   30 1
     5    2    3 1
     6    2   11 1
     7    2    4 1
     8    4    8 2
     9    4    5 1
    10    5    6 2
    11    5   31 1
    12    6    7 1
    13    6   32 1
    14    7    8 1
    15    8    9 1
    16    9   10 1
    17    9   33 1
    18    9   34 1
    19   10   11 1
    20   10   35 1
    21   10   36 1
    22   11   12 1
    23   12   13 1
    24   12   37 1
    25   12   38 1
    26   13   18 1
    27   13   14 1
    28   14   15 1
    29   14   16 2
    30   16   17 1
    31   17   18 2
    32   17   19 1
    33   19   24 ar
    34   19   20 ar
    35   20   21 ar
    36   20   39 1
    37   21   22 ar
    38   21   27 1
    39   22   23 ar
    40   22   40 1
    41   23   24 ar
    42   23   41 1
    43   24   25 1
    44   25   26 1
    45   26   42 1
    46   26   43 1
    47   26   44 1
@<TRIPOS>MOLECULE
ZINC13689740
   40    42     0     0     0
SMALL
USER_CHARGES

@<TRIPOS>ATOM
      1 C1         -0.1870    1.4906   -0.2997 C.3       1 <0>         0.0224
      2 O1         -0.1578    0.0911   -0.0123 O.3       1 <0>        -0.3035
      3 C2         -1.2941   -0.6139   -0.2601 C.ar      1 <0>         0.1116
      4 C3         -2.4097    0.0284   -0.7739 C.ar      1 <0>        -0.1741
      5 C4         -3.5714   -0.6814   -1.0290 C.ar      1 <0>        -0.0770
      6 C5         -3.6310   -2.0341   -0.7746 C.ar      1 <0>        -0.1182
      7 C6         -2.5126   -2.6982   -0.2558 C.ar      1 <0>        -0.0746
      8 C7         -1.3344   -1.9790   -0.0033 C.ar      1 <0>         0.1012
      9 O2         -0.2411   -2.6126    0.4947 O.3       1 <0>        -0.3216
     10 C8         -0.1223   -2.6805    1.9172 C.3       1 <0>         0.0329
     11 C9         -2.5707   -4.1395    0.0176 C.2       1 <0>         0.0755
     12 C10        -3.7722   -4.7612    0.1295 C.2       1 <0>        -0.2267
     13 C11        -4.0735   -6.1996    0.2574 C.2       1 <0>         0.5551
     14 O3         -3.1891   -7.0357    0.2757 O.2       1 <0>        -0.4816
     15 N1         -5.3479   -6.5395    0.3517 N.am      1 <0>        -0.6887
     16 C12        -6.3347   -5.5780    0.3290 C.2       1 <0>         0.3597
     17 N2         -7.6361   -5.7407    0.4104 N.2       1 <0>        -0.4546
     18 C13        -8.1620   -6.9981    0.5361 C.ar      1 <0>         0.0961
     19 C14        -7.6852   -8.0407   -0.2617 C.ar      1 <0>        -0.1572
     20 C15        -8.2195   -9.3055   -0.1301 C.ar      1 <0>        -0.0869
     21 C16        -9.2264   -9.5427    0.7904 C.ar      1 <0>        -0.0418
     22 C17        -9.7035   -8.5134    1.5843 C.ar      1 <0>        -0.0897
     23 C18        -9.1738   -7.2453    1.4667 C.ar      1 <0>        -0.0880
     24 Cl1        -9.8939  -11.1374    0.9493 Cl        1 <0>        -0.0614
     25 S1         -5.4140   -4.0566    0.1694 S.3       1 <0>         0.1043
     26 H1          0.7799    1.9316   -0.0573 H         1 <0>         0.1051
     27 H2         -0.3993    1.6398   -1.3583 H         1 <0>         0.0594
     28 H3         -0.9639    1.9680    0.2975 H         1 <0>         0.0583
     29 H4         -2.3731    1.0886   -0.9763 H         1 <0>         0.1411
     30 H5         -4.4354   -0.1716   -1.4290 H         1 <0>         0.1404
     31 H6         -4.5399   -2.5820   -0.9749 H         1 <0>         0.1404
     32 H7         -0.0881   -1.6713    2.3275 H         1 <0>         0.0515
     33 H8         -0.9810   -3.2111    2.3285 H         1 <0>         0.0478
     34 H9          0.7928   -3.2110    2.1804 H         1 <0>         0.1000
     35 H10        -1.6575   -4.7051    0.1296 H         1 <0>         0.1672
     36 H11        -5.5905   -7.4748    0.4373 H         1 <0>         0.4179
     37 H12        -6.9002   -7.8568   -0.9802 H         1 <0>         0.1310
     38 H13        -7.8520  -10.1125   -0.7467 H         1 <0>         0.1398
     39 H14       -10.4893   -8.7049    2.3001 H         1 <0>         0.1432
     40 H15        -9.5437   -6.4443    2.0896 H         1 <0>         0.1438
@<TRIPOS>BOND
     1    1    2 1
     2    1   26 1
     3    1   27 1
     4    1   28 1
     5    2    3 1
     6    3    8 ar
     7    3    4 ar
     8    4    5 ar
     9    4   29 1
    10    5    6 ar
    11    5   30 1
    12    6    7 ar
    13    6   31 1
    14    7    8 ar
    15    7   11 1
    16    8    9 1
    17    9   10 1
    18   10   32 1
    19   10   33 1
    20   10   34 1
    21   11   12 2
    22   11   35 1
    23   12   25 1
    24   12   13 1
    25   13   14 2
    26   13   15 am
    27   15   16 1
    28   15   36 1
    29   16   17 2
    30   16   25 1
    31   17   18 1
    32   18   23 ar
    33   18   19 ar
    34   19   20 ar
    35   19   37 1
    36   20   21 ar
    37   20   38 1
    38   21   22 ar
    39   21   24 1
    40   22   23 ar
    41   22   39 1
    42   23   40 1
@<TRIPOS>MOLECULE
ZINC00709932
   54    57     0     0     0
SMALL
USER_CHARGES

@<TRIPOS>ATOM
      1 C1         -0.0184    1.5028    0.0103 C.3       1 <0>        -0.0709
      2 C2          0.0021   -0.0041    0.0020 C.2       1 <0>        -0.0259
      3 C3         -1.0783   -0.8055    0.0027 C.2       1 <0>        -0.2103
      4 C4         -0.6011   -2.1363   -0.0068 C.2       1 <0>        -0.1833
      5 C5          0.7423   -2.0686   -0.0126 C.2       1 <0>         0.0023
      6 O1          1.1020   -0.7746   -0.0131 O.3       1 <0>        -0.1732
      7 C6          1.6840   -3.2450   -0.0226 C.3       1 <0>         0.1273
      8 H1          1.1037   -4.1677   -0.0244 H         1 <0>         0.1135
      9 C7          2.5425   -3.2026    1.2165 C.2       1 <0>        -0.2782
     10 C8          3.8237   -2.7822    1.1536 C.2       1 <0>         0.2174
     11 C9          4.6895   -2.7393    2.3884 C.3       1 <0>        -0.0967
     12 C10         3.8187   -2.4695    3.6175 C.3       1 <0>        -0.1115
     13 C11         2.7609   -3.5739    3.7153 C.3       1 <0>        -0.1683
     14 C12         1.9716   -3.6097    2.4351 C.2       1 <0>         0.4009
     15 O2          0.8202   -3.9974    2.4546 O.2       1 <0>        -0.4623
     16 N1          4.3676   -2.3872   -0.0392 N.pl3     1 <0>        -0.6276
     17 C13         3.8021   -2.7708   -1.2232 C.2       1 <0>         0.2382
     18 C14         2.5269   -3.1908   -1.2628 C.2       1 <0>        -0.2598
     19 C15         1.9680   -3.5905   -2.4993 C.2       1 <0>         0.5217
     20 O3          2.6411   -3.5511   -3.5122 O.2       1 <0>        -0.5225
     21 O4          0.6884   -4.0154   -2.5555 O.3       1 <0>        -0.3386
     22 C16         0.1895   -4.4036   -3.8371 C.3       1 <0>         0.0918
     23 C17        -0.4274   -3.1890   -4.5335 C.3       1 <0>        -0.1342
     24 C18        -0.9616   -3.6046   -5.9056 C.3       1 <0>        -0.1156
     25 C19        -2.0275   -4.6883   -5.7311 C.3       1 <0>        -0.1238
     26 C20        -1.4106   -5.9029   -5.0346 C.3       1 <0>        -0.1160
     27 C21        -0.8764   -5.4873   -3.6625 C.3       1 <0>        -0.1158
     28 C22         4.6145   -2.7217   -2.4914 C.3       1 <0>        -0.1151
     29 H2          1.0042    1.8801    0.0026 H         1 <0>         0.0709
     30 H3         -0.5455    1.8639   -0.8728 H         1 <0>         0.0824
     31 H4         -0.5286    1.8543    0.9071 H         1 <0>         0.0828
     32 H5         -2.1119   -0.4924    0.0097 H         1 <0>         0.1437
     33 H6         -1.2002   -3.0349   -0.0086 H         1 <0>         0.1448
     34 H7          5.1992   -3.6953    2.5076 H         1 <0>         0.1036
     35 H8          5.4286   -1.9448    2.2859 H         1 <0>         0.0911
     36 H9          4.4386   -2.4756    4.5141 H         1 <0>         0.0886
     37 H10         3.3288   -1.5013    3.5140 H         1 <0>         0.0756
     38 H11         3.2506   -4.5355    3.8690 H         1 <0>         0.1017
     39 H12         2.0922   -3.3657    4.5505 H         1 <0>         0.0982
     40 H13         5.1613   -1.8297   -0.0442 H         1 <0>         0.4212
     41 H14         1.0077   -4.7930   -4.4428 H         1 <0>         0.0819
     42 H15        -1.2457   -2.7995   -3.9277 H         1 <0>         0.0717
     43 H16         0.3319   -2.4169   -4.6579 H         1 <0>         0.0649
     44 H17        -1.4011   -2.7393   -6.4018 H         1 <0>         0.0673
     45 H18        -0.1434   -3.9940   -6.5114 H         1 <0>         0.0643
     46 H19        -2.8457   -4.2989   -5.1253 H         1 <0>         0.0649
     47 H20        -2.4081   -4.9844   -6.7086 H         1 <0>         0.0656
     48 H21        -2.1699   -6.6749   -4.9103 H         1 <0>         0.0714
     49 H22        -0.5923   -6.2923   -5.6404 H         1 <0>         0.0646
     50 H23        -0.4369   -6.3526   -3.1663 H         1 <0>         0.0705
     51 H24        -1.6946   -5.0978   -3.0568 H         1 <0>         0.0748
     52 H25         5.6173   -2.3584   -2.2667 H         1 <0>         0.0636
     53 H26         4.6780   -3.7214   -2.9212 H         1 <0>         0.1047
     54 H27         4.1358   -2.0497   -3.2038 H         1 <0>         0.1018
@<TRIPOS>BOND
     1    1    2 1
     2    1   29 1
     3    1   30 1
     4    1   31 1
     5    2    6 1
     6    2    3 2
     7    3    4 1
     8    3   32 1
     9    4    5 2
    10    4   33 1
    11    5    6 1
    12    5    7 1
    13    7    8 1
    14    7   18 1
    15    7    9 1
    16    9   14 1
    17    9   10 2
    18   10   11 1
    19   10   16 1
    20   11   12 1
    21   11   34 1
    22   11   35 1
    23   12   13 1
    24   12   36 1
    25   12   37 1
    26   13   14 1
    27   13   38 1
    28   13   39 1
    29   14   15 2
    30   16   17 1
    31   16   40 1
    32   17   18 2
    33   17   28 1
    34   18   19 1
    35   19   20 2
    36   19   21 1
    37   21   22 1
    38   22   27 1
    39   22   23 1
    40   22   41 1
    41   23   24 1
    42   23   42 1
    43   23   43 1
    44   24   25 1
    45   24   44 1
    46   24   45 1
    47   25   26 1
    48   25   46 1
    49   25   47 1
    50   26   27 1
    51   26   48 1
    52   26   49 1
    53   27   50 1
    54   27   51 1
    55   28   52 1
    56   28   53 1
    57   28   54 1
@<TRIPOS>MOLECULE
ZINC04237648
   51    54     0     0     0
SMALL
USER_CHARGES
(4-isopropylphenyl)-(2-methylprop-2-enyl)-oxo-BLAHcarboxylic acid
@<TRIPOS>ATOM
      1 C1          0.1350    6.0223    2.6474 C.3       1 <0>        -0.1443
      2 C2         -0.2402    5.3861    1.3075 C.3       1 <0>        -0.0549
      3 C3          0.9998    5.3089    0.4146 C.3       1 <0>        -0.1427
      4 C4         -0.7767    3.9978    1.5433 C.ar      1 <0>        -0.0871
      5 C5         -2.0625    3.6785    1.1473 C.ar      1 <0>        -0.1057
      6 C6         -2.5572    2.4070    1.3620 C.ar      1 <0>        -0.1075
      7 C7         -1.7616    1.4485    1.9759 C.ar      1 <0>         0.1704
      8 C8         -0.4725    1.7738    2.3772 C.ar      1 <0>        -0.1244
      9 C9          0.0181    3.0456    2.1549 C.ar      1 <0>        -0.1066
     10 N1         -2.2597    0.1594    2.1948 N.am      1 <0>        -0.6078
     11 C10        -1.7577   -1.0836    1.5294 C.3       1 <0>         0.1948
     12 H1         -0.9094   -1.5007    2.0722 H         1 <0>         0.0865
     13 C11        -2.9490   -1.9860    1.6214 C.3       1 <0>         0.1068
     14 C12        -4.0761   -1.5702    0.6939 C.2       1 <0>        -0.1827
     15 C13        -5.0416   -2.4580    0.8812 C.2       1 <0>        -0.1406
     16 C14        -4.5173   -3.3890    1.9814 C.3       1 <0>         0.1076
     17 H2         -5.0021   -4.3622    2.0578 H         1 <0>         0.1413
     18 O1         -3.0572   -3.3882    1.6923 O.3       1 <0>        -0.3297
     19 C15        -4.6012   -2.4703    3.2616 C.3       1 <0>        -0.1335
     20 H3         -4.5594   -3.0655    4.1738 H         1 <0>         0.0891
     21 C16        -3.3594   -1.6296    3.1065 C.3       1 <0>        -0.1561
     22 H4         -2.5841   -2.0062    3.7737 H         1 <0>         0.0980
     23 C17        -3.2837   -0.1584    3.0540 C.2       1 <0>         0.5527
     24 O2         -3.9903    0.6228    3.6553 O.2       1 <0>        -0.4342
     25 C18        -5.8411   -1.6143    3.2340 C.2       1 <0>         0.4656
     26 O3         -5.7460   -0.4172    3.1002 O.co2     1 <0>        -0.5937
     27 C19        -1.3890   -0.8117    0.0696 C.3       1 <0>        -0.0881
     28 C20        -0.7642   -2.0456   -0.5289 C.2       1 <0>        -0.1319
     29 C21        -1.5013   -2.8900   -1.2070 C.2       1 <0>        -0.1697
     30 C22         0.7087   -2.3081   -0.3474 C.3       1 <0>        -0.1144
     31 H5          0.5231    7.0265    2.4769 H         1 <0>         0.0551
     32 H6         -0.7484    6.0774    3.2835 H         1 <0>         0.0568
     33 H7          0.8977    5.4163    3.1365 H         1 <0>         0.0560
     34 H8         -1.0029    5.9922    0.8185 H         1 <0>         0.0759
     35 H9          0.7325    4.8556   -0.5400 H         1 <0>         0.0555
     36 H10         1.3879    6.3131    0.2440 H         1 <0>         0.0548
     37 H11         1.7625    4.7028    0.9037 H         1 <0>         0.0560
     38 H12        -2.6808    4.4243    0.6699 H         1 <0>         0.1219
     39 H13        -3.5615    2.1582    1.0524 H         1 <0>         0.1254
     40 H14         0.1470    1.0320    2.8592 H         1 <0>         0.1216
     41 H15         1.0219    3.2981    2.4630 H         1 <0>         0.1208
     42 H16        -4.0885   -0.7257    0.0208 H         1 <0>         0.1362
     43 H17        -5.9916   -2.5136    0.3704 H         1 <0>         0.1445
     44 H18        -0.6796    0.0145    0.0218 H         1 <0>         0.0762
     45 H19        -2.2877   -0.5518   -0.4898 H         1 <0>         0.0814
     46 H20        -2.5568   -2.7019   -1.3371 H         1 <0>         0.0992
     47 H21        -1.0535   -3.7742   -1.6359 H         1 <0>         0.0948
     48 H22         0.9588   -3.2817   -0.7688 H         1 <0>         0.0597
     49 H23         1.2813   -1.5335   -0.8574 H         1 <0>         0.0620
     50 H24         0.9511   -2.2990    0.7153 H         1 <0>         0.0627
     51 O4         -7.0513   -2.1816    3.3580 O.co2     1 <0>        -0.7737
@<TRIPOS>BOND
     1    1    2 1
     2    1   31 1
     3    1   32 1
     4    1   33 1
     5    2    3 1
     6    2    4 1
     7    2   34 1
     8    3   35 1
     9    3   36 1
    10    3   37 1
    11    4    9 ar
    12    4    5 ar
    13    5    6 ar
    14    5   38 1
    15    6    7 ar
    16    6   39 1
    17    7    8 ar
    18    7   10 1
    19    8    9 ar
    20    8   40 1
    21    9   41 1
    22   10   23 am
    23   10   11 1
    24   11   12 1
    25   11   13 1
    26   11   27 1
    27   13   18 1
    28   13   21 1
    29   13   14 1
    30   14   15 2
    31   14   42 1
    32   15   16 1
    33   15   43 1
    34   16   17 1
    35   16   18 1
    36   16   19 1
    37   19   20 1
    38   19   21 1
    39   19   25 1
    40   21   22 1
    41   21   23 1
    42   23   24 2
    43   25   26 2
    44   25   51 1
    45   27   28 1
    46   27   44 1
    47   27   45 1
    48   28   29 2
    49   28   30 1
    50   29   46 1
    51   29   47 1
    52   30   48 1
    53   30   49 1
    54   30   50 1
@<TRIPOS>MOLECULE
ZINC27516937
   39    43     0     0     0
SMALL
USER_CHARGES
(2-chlorophenyl)-methyl-BLAHone
@<TRIPOS>ATOM
      1 C1         -0.0187    1.5258    0.0104 C.3       1 <0>        -0.1463
      2 C2          0.0021   -0.0041    0.0020 C.3       1 <0>        -0.0870
      3 H1         -1.0334   -0.3753    0.0053 H         1 <0>         0.0733
      4 C3          0.7422   -0.5145    1.2417 C.3       1 <0>        -0.1124
      5 C4          0.5560   -2.0266    1.3729 C.3       1 <0>        -0.0592
      6 C5          0.9486   -2.6867    0.0542 C.2       1 <0>        -0.0127
      7 C6          1.0148   -1.9646   -1.0849 C.2       1 <0>        -0.2294
      8 S1          1.4999   -3.1277   -2.3314 S.3       1 <0>         0.0621
      9 C7          1.6107   -4.5752   -1.3116 C.2       1 <0>         0.1910
     10 C8          1.2688   -4.1102   -0.0441 C.2       1 <0>        -0.2710
     11 C9          1.2793   -5.1327    1.0299 C.2       1 <0>         0.3740
     12 N1          1.0184   -5.0713    2.3179 N.2       1 <0>        -0.5506
     13 C10         1.1713   -6.2855    2.8629 C.2       1 <0>         0.2460
     14 N2          1.5322   -7.1388    1.9287 N.2       1 <0>        -0.2759
     15 N3          1.6113   -6.4208    0.7246 N.pl3     1 <0>        -0.3753
     16 C11         1.9289   -6.7821   -0.5292 C.2       1 <0>         0.6641
     17 O1          2.2196   -7.9400   -0.7607 O.3       1 <0>        -0.5533
     18 N4          1.9321   -5.8862   -1.5357 N.2       1 <0>        -0.5946
     19 C12         0.9660   -6.6160    4.2948 C.ar      1 <0>         0.0116
     20 C13         0.5827   -5.6227    5.1939 C.ar      1 <0>        -0.0680
     21 C14         0.3932   -5.9355    6.5245 C.ar      1 <0>        -0.1243
     22 C15         0.5829   -7.2325    6.9673 C.ar      1 <0>        -0.1031
     23 C16         0.9637   -8.2228    6.0806 C.ar      1 <0>        -0.1191
     24 C17         1.1504   -7.9227    4.7448 C.ar      1 <0>        -0.0164
     25 Cl1         1.6204   -9.1683    3.6307 Cl        1 <0>        -0.0309
     26 C18         0.7371   -0.5023   -1.2508 C.3       1 <0>        -0.0145
     27 H2         -0.5456    1.8804    0.9085 H         1 <0>         0.0539
     28 H3         -0.5388    1.8903   -0.8877 H         1 <0>         0.0536
     29 H4          1.0133    1.9065    0.0164 H         1 <0>         0.0543
     30 H5          1.8145   -0.2877    1.1478 H         1 <0>         0.0626
     31 H6          0.3400   -0.0202    2.1383 H         1 <0>         0.0620
     32 H7          1.1949   -2.4057    2.1842 H         1 <0>         0.0819
     33 H8         -0.4970   -2.2479    1.6015 H         1 <0>         0.0718
     34 H9          0.4346   -4.6097    4.8499 H         1 <0>         0.1439
     35 H10         0.0958   -5.1662    7.2217 H         1 <0>         0.1313
     36 H11         0.4333   -7.4723    8.0096 H         1 <0>         0.1307
     37 H12         1.1107   -9.2335    6.4318 H         1 <0>         0.1346
     38 H13         0.1058   -0.3370   -2.1363 H         1 <0>         0.0702
     39 H14         1.6816    0.0497   -1.3656 H         1 <0>         0.0711
@<TRIPOS>BOND
     1    1    2 1
     2    1   27 1
     3    1   28 1
     4    1   29 1
     5    2    3 1
     6    2   26 1
     7    2    4 1
     8    4    5 1
     9    4   30 1
    10    4   31 1
    11    5    6 1
    12    5   32 1
    13    5   33 1
    14    6   10 1
    15    6    7 2
    16    7    8 1
    17    7   26 1
    18    8    9 1
    19    9   18 1
    20    9   10 2
    21   10   11 1
    22   11   15 1
    23   11   12 2
    24   12   13 1
    25   13   14 2
    26   13   19 1
    27   14   15 1
    28   15   16 1
    29   16   17 1
    30   16   18 2
    31   19   24 ar
    32   19   20 ar
    33   20   21 ar
    34   20   34 1
    35   21   22 ar
    36   21   35 1
    37   22   23 ar
    38   22   36 1
    39   23   24 ar
    40   23   37 1
    41   24   25 1
    42   26   38 1
    43   26   39 1
@<TRIPOS>MOLECULE
ZINC40032109
   50    53     0     0     0
SMALL
USER_CHARGES

@<TRIPOS>ATOM
      1 C1         -2.1382    0.9880   -0.5018 C.3       1 <0>        -0.1154
      2 C2         -1.8013   -0.4779   -0.4084 C.ar      1 <0>        -0.0696
      3 C3         -2.7902   -1.3950   -0.1029 C.ar      1 <0>        -0.1107
      4 C4         -2.4846   -2.7391   -0.0166 C.ar      1 <0>        -0.0822
      5 C5         -1.1828   -3.1693   -0.2369 C.ar      1 <0>         0.0970
      6 C6         -0.1920   -2.2459   -0.5434 C.ar      1 <0>        -0.0814
      7 C7         -0.5051   -0.9037   -0.6338 C.ar      1 <0>        -0.1110
      8 N1         -0.8696   -4.5316   -0.1496 N.am      1 <0>        -0.4679
      9 C8         -0.4599   -5.0540    1.0265 C.2       1 <0>         0.5394
     10 O1         -0.3534   -4.3497    2.0176 O.2       1 <0>        -0.5276
     11 C9         -0.1603   -6.4205    1.0852 C.2       1 <0>        -0.2713
     12 C10        -0.2961   -7.1855   -0.0645 C.2       1 <0>         0.2416
     13 N2         -0.6990   -6.6135   -1.2038 N.2       1 <0>        -0.5399
     14 C11        -0.9848   -5.3276   -1.2516 C.2       1 <0>         0.3529
     15 S1         -1.5205   -4.6199   -2.7737 S.3       1 <0>         0.0776
     16 C12        -1.5243   -6.0175   -3.9301 C.3       1 <0>        -0.1711
     17 C13        -1.9698   -5.5434   -5.2895 C.2       1 <0>         0.5140
     18 O2         -2.2580   -4.3714   -5.4622 O.co2     1 <0>        -0.6737
     19 O3         -2.0420   -6.3319   -6.2166 O.co2     1 <0>        -0.6729
     20 C14         0.0058   -8.6336   -0.0001 C.ar      1 <0>        -0.0538
     21 C15         0.2533   -9.3645   -1.1585 C.ar      1 <0>        -0.0672
     22 C16         0.5372  -10.7128   -1.0687 C.ar      1 <0>        -0.1324
     23 C17         0.5750  -11.3328    0.1676 C.ar      1 <0>        -0.1014
     24 C18         0.3273  -10.6104    1.3212 C.ar      1 <0>        -0.1281
     25 C19         0.0403   -9.2630    1.2450 C.ar      1 <0>        -0.0479
     26 C20        -0.2429   -8.4728    2.4939 C.3       1 <0>        -0.0728
     27 C21         0.3043   -7.0534    2.3662 C.3       1 <0>         0.0154
     28 C22         1.8335   -7.0993    2.3805 C.3       1 <0>        -0.1347
     29 C23        -0.1853   -6.2157    3.5492 C.3       1 <0>        -0.1302
     30 H1         -2.4301    1.2293   -1.5239 H         1 <0>         0.0757
     31 H2         -2.9621    1.2153    0.1747 H         1 <0>         0.0672
     32 H3         -1.2660    1.5797   -0.2237 H         1 <0>         0.0671
     33 H4         -3.8024   -1.0598    0.0686 H         1 <0>         0.1309
     34 H5         -3.2573   -3.4549    0.2223 H         1 <0>         0.1255
     35 H6          0.8214   -2.5773   -0.7152 H         1 <0>         0.1253
     36 H7          0.2640   -0.1855   -0.8769 H         1 <0>         0.1308
     37 H8         -0.5190   -6.4327   -4.0016 H         1 <0>         0.0953
     38 H9         -2.2097   -6.7849   -3.5704 H         1 <0>         0.0957
     39 H10         0.2231   -8.8794   -2.1230 H         1 <0>         0.1358
     40 H11         0.7296  -11.2842   -1.9648 H         1 <0>         0.1268
     41 H12         0.7988  -12.3874    0.2325 H         1 <0>         0.1231
     42 H13         0.3587  -11.1017    2.2825 H         1 <0>         0.1253
     43 H14        -1.3200   -8.4296    2.6555 H         1 <0>         0.0792
     44 H15         0.2283   -8.9645    3.3450 H         1 <0>         0.0827
     45 H16         2.2281   -6.0857    2.3097 H         1 <0>         0.0546
     46 H17         2.1746   -7.5579    3.3086 H         1 <0>         0.0574
     47 H18         2.1873   -7.6870    1.5334 H         1 <0>         0.0526
     48 H19        -1.2511   -6.0167    3.4371 H         1 <0>         0.0494
     49 H20        -0.0133   -6.7616    4.4769 H         1 <0>         0.0424
     50 H21         0.3596   -5.2721    3.5765 H         1 <0>         0.0826
@<TRIPOS>BOND
     1    1    2 1
     2    1   30 1
     3    1   31 1
     4    1   32 1
     5    2    7 ar
     6    2    3 ar
     7    3    4 ar
     8    3   33 1
     9    4    5 ar
    10    4   34 1
    11    5    6 ar
    12    5    8 1
    13    6    7 ar
    14    6   35 1
    15    7   36 1
    16    8   14 1
    17    8    9 am
    18    9   10 2
    19    9   11 1
    20   11   27 1
    21   11   12 2
    22   12   13 1
    23   12   20 1
    24   13   14 2
    25   14   15 1
    26   15   16 1
    27   16   17 1
    28   16   37 1
    29   16   38 1
    30   17   18 2
    31   17   19 1
    32   20   25 ar
    33   20   21 ar
    34   21   22 ar
    35   21   39 1
    36   22   23 ar
    37   22   40 1
    38   23   24 ar
    39   23   41 1
    40   24   25 ar
    41   24   42 1
    42   25   26 1
    43   26   27 1
    44   26   43 1
    45   26   44 1
    46   27   28 1
    47   27   29 1
    48   28   45 1
    49   28   46 1
    50   28   47 1
    51   29   48 1
    52   29   49 1
    53   29   50 1
@<TRIPOS>MOLECULE
ZINC59466702
   41    44     0     0     0
SMALL
USER_CHARGES

@<TRIPOS>ATOM
      1 C1         -0.0164    1.3574    0.0095 C.ar      1 <0>        -0.1113
      2 C2          1.1681    2.0916    0.0021 C.ar      1 <0>        -0.1220
      3 C3          2.3778    1.4683   -0.0132 C.ar      1 <0>        -0.0984
      4 C4          2.4367    0.0628   -0.0213 C.ar      1 <0>        -0.0599
      5 C5          3.6668   -0.6107   -0.0365 C.ar      1 <0>        -0.0669
      6 C6          3.6845   -1.9979   -0.0437 C.ar      1 <0>        -0.0673
      7 C7          2.4795   -2.7272   -0.0358 C.ar      1 <0>        -0.0737
      8 C8          1.2817   -2.0905   -0.0211 C.ar      1 <0>        -0.1164
      9 C9          1.2311   -0.6840   -0.0134 C.ar      1 <0>        -0.0377
     10 C10         0.0021   -0.0041    0.0020 C.ar      1 <0>        -0.1109
     11 C11         4.9711   -2.7124   -0.0602 C.2       1 <0>         0.1969
     12 N1          4.9929   -4.0153   -0.0670 N.2       1 <0>        -0.4728
     13 C12         6.1891   -4.6795   -0.0823 C.ar      1 <0>         0.1133
     14 C13         7.2105   -4.2656   -0.9404 C.ar      1 <0>        -0.1725
     15 C14         8.4138   -4.9399   -0.9506 C.ar      1 <0>        -0.0071
     16 C15         8.6100   -6.0243   -0.1137 C.ar      1 <0>        -0.6279
     17 C16         7.6023   -6.4401    0.7386 C.ar      1 <0>        -0.0100
     18 C17         6.3964   -5.7711    0.7642 C.ar      1 <0>        -0.1253
     19 S1         10.1501   -6.8801   -0.1339 S.o2      1 <0>         2.6361
     20 O1          9.8920   -8.1922    0.3467 O.2       1 <0>        -1.0092
     21 O2         10.7337   -6.6359   -1.4063 O.2       1 <0>        -1.0098
     22 N2         11.1301   -6.1508    0.9841 N.2       1 <0>        -1.0314
     23 C18        12.4188   -6.6195    1.1868 C.2       1 <0>         0.4010
     24 N3         13.0299   -7.6180    0.5855 N.2       1 <0>        -0.6656
     25 C19        14.2729   -7.9423    0.8952 C.2       1 <0>         0.1001
     26 C20        14.8820   -7.2034    1.8533 C.2       1 <0>        -0.3454
     27 S2         13.5844   -6.0452    2.2563 S.3       1 <0>         0.0108
     28 H1         -0.9635    1.8762    0.0259 H         1 <0>         0.1227
     29 H2          1.1254    3.1707    0.0083 H         1 <0>         0.1234
     30 H3          3.2879    2.0498   -0.0195 H         1 <0>         0.1292
     31 H4          4.5924   -0.0542   -0.0429 H         1 <0>         0.1363
     32 H5          2.5095   -3.8068   -0.0420 H         1 <0>         0.1373
     33 H6          0.3662   -2.6634   -0.0152 H         1 <0>         0.1297
     34 H7         -0.9245   -0.5589    0.0082 H         1 <0>         0.1273
     35 H8          5.8973   -2.1568   -0.0666 H         1 <0>         0.1141
     36 H9          7.0585   -3.4199   -1.5946 H         1 <0>         0.1277
     37 H10         9.2044   -4.6210   -1.6135 H         1 <0>         0.1411
     38 H11         7.7621   -7.2877    1.3886 H         1 <0>         0.1439
     39 H12         5.6124   -6.0937    1.4333 H         1 <0>         0.1340
     40 H13        14.7806   -8.7606    0.4062 H         1 <0>         0.1459
     41 H14        15.8792   -7.2890    2.2590 H         1 <0>         0.1709
@<TRIPOS>BOND
     1    1   10 ar
     2    1    2 ar
     3    1   28 1
     4    2    3 ar
     5    2   29 1
     6    3    4 ar
     7    3   30 1
     8    4    9 ar
     9    4    5 ar
    10    5    6 ar
    11    5   31 1
    12    6    7 ar
    13    6   11 1
    14    7    8 ar
    15    7   32 1
    16    8    9 ar
    17    8   33 1
    18    9   10 ar
    19   10   34 1
    20   11   12 2
    21   11   35 1
    22   12   13 1
    23   13   18 ar
    24   13   14 ar
    25   14   15 ar
    26   14   36 1
    27   15   16 ar
    28   15   37 1
    29   16   17 ar
    30   16   19 1
    31   17   18 ar
    32   17   38 1
    33   18   39 1
    34   19   20 2
    35   19   21 2
    36   19   22 1
    37   22   23 1
    38   23   27 1
    39   23   24 2
    40   24   25 1
    41   25   26 2
    42   25   40 1
    43   26   27 1
    44   26   41 1
@<TRIPOS>MOLECULE
ZINC63653610
   39    41     0     0     0
SMALL
USER_CHARGES

@<TRIPOS>ATOM
      1 C1         -0.0184    1.5028    0.0103 C.3       1 <0>        -0.0807
      2 C2          0.0021   -0.0041    0.0020 C.ar      1 <0>        -0.1264
      3 C3          0.0058   -0.6887   -1.1978 C.ar      1 <0>        -0.1079
      4 C4          0.0251   -2.0730   -1.2060 C.ar      1 <0>        -0.0171
      5 C5          0.0402   -2.7744   -0.0120 C.ar      1 <0>        -0.0970
      6 C6          0.0360   -2.0942    1.1898 C.ar      1 <0>        -0.2405
      7 C7          0.0230   -0.7053    1.2004 C.ar      1 <0>         0.2743
      8 N1          0.0251   -0.0143    2.4159 N.2       1 <0>        -1.0770
      9 S1          0.0500   -0.8518    3.8443 S.o2      1 <0>         2.6276
     10 O1         -1.1852   -1.5492    3.9278 O.2       1 <0>        -1.0183
     11 O2          1.3051   -1.5153    3.9042 O.2       1 <0>        -1.0191
     12 C8          0.0461    0.3367    5.1451 C.2       1 <0>        -0.6601
     13 C9         -1.0084    0.8940    5.7891 C.2       1 <0>        -0.0446
     14 C10        -0.7709    1.8158    6.7913 C.2       1 <0>        -0.1549
     15 C11         0.5096    2.1352    7.1007 C.2       1 <0>        -0.1292
     16 S2          1.4303    1.1135    5.9624 S.3       1 <0>         0.1814
     17 C12         1.0229    3.0985    8.1397 C.3       1 <0>         0.0537
     18 H1          0.2491    3.8153    8.4145 H         1 <0>         0.1616
     19 C13         1.5225    2.3519    9.3640 C.2       1 <0>        -0.1081
     20 C14         2.8170    2.6710    9.4287 C.2       1 <0>        -0.0524
     21 N2          3.1582    3.5005    8.4179 N.2       1 <0>        -0.1508
     22 N3          2.2282    3.7930    7.6559 N.2       1 <0>        -0.1498
     23 C15         3.7690    2.1735   10.4858 C.3       1 <0>        -0.0829
     24 C16         0.7388    1.4587   10.2908 C.3       1 <0>        -0.0938
     25 F1          0.0287   -2.7405   -2.3806 F         1 <0>        -0.1642
     26 H2          1.0042    1.8801    0.0026 H         1 <0>         0.0522
     27 H3         -0.5455    1.8639   -0.8728 H         1 <0>         0.0413
     28 H4         -0.5286    1.8543    0.9071 H         1 <0>         0.0757
     29 H5         -0.0067   -0.1437   -2.1301 H         1 <0>         0.1179
     30 H6          0.0548   -3.8543   -0.0208 H         1 <0>         0.1148
     31 H7          0.0471   -2.6416    2.1207 H         1 <0>         0.1054
     32 H8         -2.0191    0.6222    5.5227 H         1 <0>         0.1485
     33 H9         -1.5933    2.2749    7.3198 H         1 <0>         0.1394
     34 H10         4.2278    1.2427   10.1525 H         1 <0>         0.0798
     35 H11         4.5446    2.9201   10.6566 H         1 <0>         0.0783
     36 H12         3.2232    1.9980   11.4128 H         1 <0>         0.0753
     37 H13         0.7789    0.4322    9.9262 H         1 <0>         0.0882
     38 H14         1.1693    1.5060   11.2911 H         1 <0>         0.0815
     39 H15        -0.2984    1.7917   10.3255 H         1 <0>         0.0782
@<TRIPOS>BOND
     1    1    2 1
     2    1   26 1
     3    1   27 1
     4    1   28 1
     5    2    7 ar
     6    2    3 ar
     7    3    4 ar
     8    3   29 1
     9    4    5 ar
    10    4   25 1
    11    5    6 ar
    12    5   30 1
    13    6    7 ar
    14    6   31 1
    15    7    8 1
    16    8    9 1
    17    9   10 2
    18    9   11 2
    19    9   12 1
    20   12   16 1
    21   12   13 2
    22   13   14 1
    23   13   32 1
    24   14   15 2
    25   14   33 1
    26   15   16 1
    27   15   17 1
    28   17   18 1
    29   17   22 1
    30   17   19 1
    31   19   20 2
    32   19   24 1
    33   20   21 1
    34   20   23 1
    35   21   22 2
    36   23   34 1
    37   23   35 1
    38   23   36 1
    39   24   37 1
    40   24   38 1
    41   24   39 1
@<TRIPOS>MOLECULE
ZINC65183515
   44    46     0     0     0
SMALL
USER_CHARGES

@<TRIPOS>ATOM
      1 C1         -0.0184    1.5028    0.0103 C.3       1 <0>        -0.0910
      2 C2          0.0021   -0.0041    0.0020 C.ar      1 <0>        -0.1960
      3 C3          0.0057   -0.6874   -1.2004 C.ar      1 <0>        -0.0612
      4 C4          0.0244   -2.0681   -1.2116 C.ar      1 <0>        -0.2654
      5 C5          0.0396   -2.7708   -0.0132 C.ar      1 <0>         0.2769
      6 C6          0.0359   -2.0814    1.1925 C.ar      1 <0>        -0.1776
      7 C7          0.0229   -0.7002    1.1965 C.ar      1 <0>        -0.0496
      8 C8          0.0251    0.0488    2.5042 C.3       1 <0>        -0.1069
      9 N1          0.0581   -4.1674   -0.0209 N.2       1 <0>        -1.0855
     10 S1          0.0619   -4.9875   -1.4596 S.o2      1 <0>         2.6232
     11 O1         -1.1901   -4.7266   -2.0791 O.2       1 <0>        -1.0303
     12 O2          1.3004   -4.6936   -2.0913 O.2       1 <0>        -1.0107
     13 C9          0.0866   -6.7076   -1.0786 C.2       1 <0>        -0.5195
     14 C10         1.1823   -7.4655   -0.9074 C.2       1 <0>         0.1563
     15 N2          0.7914   -8.7191   -0.6310 N.2       1 <0>        -0.4474
     16 C11        -0.5097   -8.7639   -0.6251 C.2       1 <0>         0.1937
     17 N3         -1.0262   -7.5241   -0.8950 N.pl3     1 <0>        -0.3827
     18 C12        -2.3993   -7.4114   -0.9171 C.2       1 <0>         0.0431
     19 C13        -3.1745   -8.4688   -0.6809 C.2       1 <0>        -0.1632
     20 S2         -1.9677   -9.7575   -0.4102 S.3       1 <0>         0.1172
     21 C14        -4.6787   -8.5567   -0.6573 C.3       1 <0>        -0.0563
     22 C15         2.6084   -6.9890   -1.0089 C.3       1 <0>        -0.0479
     23 C16         3.3206   -7.2235    0.3248 C.3       1 <0>        -0.1381
     24 C17         3.3277   -7.7643   -2.1145 C.3       1 <0>        -0.1339
     25 H1          1.0042    1.8801    0.0026 H         1 <0>         0.0498
     26 H2         -0.5455    1.8639   -0.8728 H         1 <0>         0.0493
     27 H3         -0.5286    1.8543    0.9071 H         1 <0>         0.0536
     28 H4         -0.0065   -0.1406   -2.1317 H         1 <0>         0.1015
     29 H5          0.0269   -2.6011   -2.1509 H         1 <0>         0.0945
     30 H6          0.0473   -2.6246    2.1259 H         1 <0>         0.1108
     31 H7         -1.0019    0.2154    2.8292 H         1 <0>         0.0600
     32 H8          0.5541   -0.5358    3.2568 H         1 <0>         0.0582
     33 H9          0.5246    1.0086    2.3723 H         1 <0>         0.0593
     34 H10        -2.8527   -6.4542   -1.1280 H         1 <0>         0.1847
     35 H11        -5.0442   -8.8000   -1.6549 H         1 <0>         0.0834
     36 H12        -4.9863   -9.3343    0.0420 H         1 <0>         0.0807
     37 H13        -5.0937   -7.5995   -0.3417 H         1 <0>         0.0885
     38 H14         2.6200   -5.9249   -1.2448 H         1 <0>         0.1263
     39 H15         3.3090   -8.2876    0.5607 H         1 <0>         0.0579
     40 H16         4.3521   -6.8788    0.2513 H         1 <0>         0.0621
     41 H17         2.8082   -6.6711    1.1124 H         1 <0>         0.0591
     42 H18         2.8203   -7.5973   -3.0646 H         1 <0>         0.0528
     43 H19         4.3592   -7.4197   -2.1879 H         1 <0>         0.0626
     44 H20         3.3161   -8.8284   -1.8786 H         1 <0>         0.0578
@<TRIPOS>BOND
     1    1    2 1
     2    1   25 1
     3    1   26 1
     4    1   27 1
     5    2    7 ar
     6    2    3 ar
     7    3    4 ar
     8    3   28 1
     9    4    5 ar
    10    4   29 1
    11    5    6 ar
    12    5    9 1
    13    6    7 ar
    14    6   30 1
    15    7    8 1
    16    8   31 1
    17    8   32 1
    18    8   33 1
    19    9   10 1
    20   10   11 2
    21   10   12 2
    22   10   13 1
    23   13   17 1
    24   13   14 2
    25   14   15 1
    26   14   22 1
    27   15   16 2
    28   16   20 1
    29   16   17 1
    30   17   18 1
    31   18   19 2
    32   18   34 1
    33   19   20 1
    34   19   21 1
    35   21   35 1
    36   21   36 1
    37   21   37 1
    38   22   23 1
    39   22   24 1
    40   22   38 1
    41   23   39 1
    42   23   40 1
    43   23   41 1
    44   24   42 1
    45   24   43 1
    46   24   44 1
@<TRIPOS>MOLECULE
ZINC37575776
   29    30     0     0     0
SMALL
USER_CHARGES

@<TRIPOS>ATOM
      1 C1         -0.0184    1.5028    0.0103 C.3       1 <0>        -0.1671
      2 C2          0.0021   -0.0041    0.0020 C.ar      1 <0>         0.0442
      3 C3          0.0058   -0.6886   -1.1993 C.ar      1 <0>        -0.1451
      4 C4          0.0250   -2.0704   -1.2074 C.ar      1 <0>        -0.0477
      5 C5          0.0405   -2.7688   -0.0132 C.ar      1 <0>        -0.1245
      6 C6          0.0368   -2.0836    1.1882 C.ar      1 <0>         0.0042
      7 C7          0.0229   -0.7013    1.1953 C.ar      1 <0>        -0.6200
      8 S1          0.0255    0.1718    2.7257 S.o2      1 <0>         2.6078
      9 O1         -1.0141    1.1372    2.6444 O.2       1 <0>        -1.0180
     10 O2          0.0757   -0.8090    3.7528 O.2       1 <0>        -1.0222
     11 N1          1.4487    1.0146    2.8062 N.2       1 <0>        -1.0733
     12 C8          1.7294    1.8079    3.9231 C.ar      1 <0>         0.2576
     13 C9          0.8186    1.8855    4.9679 C.ar      1 <0>        -0.2182
     14 C10         1.0988    2.6706    6.0706 C.ar      1 <0>        -0.0345
     15 C11         2.2856    3.3788    6.1343 C.ar      1 <0>        -0.1707
     16 C12         3.1954    3.3046    5.0956 C.ar      1 <0>        -0.1084
     17 C13         2.9242    2.5163    3.9923 C.ar      1 <0>         0.0452
     18 F1          3.8159    2.4393    2.9804 F         1 <0>        -0.1398
     19 Br1        -0.1419    2.7771    7.4936 Br        1 <0>        -0.0802
     20 Br2         0.0661   -4.6596   -0.0236 Br        1 <0>        -0.0560
     21 H1          1.0042    1.8801    0.0026 H         1 <0>         0.0955
     22 H2         -0.5455    1.8639   -0.8728 H         1 <0>         0.0722
     23 H3         -0.5286    1.8543    0.9071 H         1 <0>         0.1116
     24 H4         -0.0067   -0.1433   -2.1314 H         1 <0>         0.1365
     25 H5          0.0275   -2.6050   -2.1458 H         1 <0>         0.1345
     26 H6          0.0485   -2.6284    2.1206 H         1 <0>         0.1480
     27 H7         -0.1083    1.3334    4.9190 H         1 <0>         0.1164
     28 H8          2.5018    3.9914    6.9972 H         1 <0>         0.1238
     29 H9          4.1206    3.8593    5.1481 H         1 <0>         0.1283
@<TRIPOS>BOND
     1    1    2 1
     2    1   21 1
     3    1   22 1
     4    1   23 1
     5    2    7 ar
     6    2    3 ar
     7    3    4 ar
     8    3   24 1
     9    4    5 ar
    10    4   25 1
    11    5    6 ar
    12    5   20 1
    13    6    7 ar
    14    6   26 1
    15    7    8 1
    16    8    9 2
    17    8   10 2
    18    8   11 1
    19   11   12 1
    20   12   17 ar
    21   12   13 ar
    22   13   14 ar
    23   13   27 1
    24   14   15 ar
    25   14   19 1
    26   15   16 ar
    27   15   28 1
    28   16   17 ar
    29   16   29 1
    30   17   18 1
@<TRIPOS>MOLECULE
ZINC49061052
   30    31     0     0     0
SMALL
USER_CHARGES

@<TRIPOS>ATOM
      1 C1         -0.0184    1.5028    0.0103 C.3       1 <0>        -0.0770
      2 C2          0.0021   -0.0041    0.0020 C.ar      1 <0>        -0.1309
      3 C3          0.0057   -0.6889   -1.1991 C.ar      1 <0>        -0.0726
      4 C4          0.0244   -2.0717   -1.2102 C.ar      1 <0>        -0.1524
      5 C5          0.0391   -2.7765   -0.0192 C.ar      1 <0>        -0.1301
      6 C6          0.0351   -2.0974    1.1874 C.ar      1 <0>        -0.0117
      7 C7          0.0229   -0.7039    1.1990 C.ar      1 <0>         0.2847
      8 N1          0.0251   -0.0123    2.4164 N.2       1 <0>        -1.0878
      9 S1          0.0500   -0.8500    3.8446 S.o2      1 <0>         2.6482
     10 O1         -1.1852   -1.5475    3.9280 O.2       1 <0>        -0.9929
     11 O2          1.3051   -1.5136    3.9043 O.2       1 <0>        -0.9932
     12 C8          0.0463    0.3382    5.1457 C.2       1 <0>        -0.6519
     13 C9          0.0673    0.1364    6.4863 C.2       1 <0>        -0.0320
     14 C10         0.0596    1.2326    7.3291 C.2       1 <0>        -0.1631
     15 C11         0.0312    2.4760    6.7901 C.2       1 <0>        -0.1768
     16 S2          0.0216    2.1202    5.0406 S.3       1 <0>         0.2107
     17 Br1         0.1059   -1.6173    7.1926 Br        1 <0>        -0.0329
     18 O3          0.0486   -2.7887    2.3586 O.3       1 <0>        -0.3222
     19 C12         0.0666   -4.2148    2.2700 C.3       1 <0>         0.0501
     20 Br2         0.0293   -3.0017   -2.8567 Br        1 <0>        -0.0959
     21 H1          1.0042    1.8801    0.0026 H         1 <0>         0.0518
     22 H2         -0.5455    1.8639   -0.8728 H         1 <0>         0.0427
     23 H3         -0.5286    1.8543    0.9071 H         1 <0>         0.0755
     24 H4         -0.0064   -0.1428   -2.1308 H         1 <0>         0.1168
     25 H5          0.0533   -3.8563   -0.0310 H         1 <0>         0.1186
     26 H6          0.0756    1.1000    8.4009 H         1 <0>         0.1434
     27 H7          0.0214    3.4336    7.2894 H         1 <0>         0.1954
     28 H8         -0.8211   -4.5571    1.7382 H         1 <0>         0.0483
     29 H9          0.9587   -4.5341    1.7312 H         1 <0>         0.0481
     30 H10         0.0761   -4.6411    3.2732 H         1 <0>         0.0893
@<TRIPOS>BOND
     1    1    2 1
     2    1   21 1
     3    1   22 1
     4    1   23 1
     5    2    7 ar
     6    2    3 ar
     7    3    4 ar
     8    3   24 1
     9    4    5 ar
    10    4   20 1
    11    5    6 ar
    12    5   25 1
    13    6    7 ar
    14    6   18 1
    15    7    8 1
    16    8    9 1
    17    9   10 2
    18    9   11 2
    19    9   12 1
    20   12   16 1
    21   12   13 2
    22   13   14 1
    23   13   17 1
    24   14   15 2
    25   14   26 1
    26   15   16 1
    27   15   27 1
    28   18   19 1
    29   19   28 1
    30   19   29 1
    31   19   30 1
@<TRIPOS>MOLECULE
ZINC59366084
   45    47     0     0     0
SMALL
USER_CHARGES

@<TRIPOS>ATOM
      1 C1         -0.3580    1.5971    0.2714 C.3       1 <0>        -0.1470
      2 C2         -0.3963    0.0676    0.2819 C.3       1 <0>         0.0645
      3 O1          0.3721   -0.4205    1.3834 O.3       1 <0>        -0.3189
      4 C3          0.4409   -1.7554    1.5363 C.2       1 <0>         0.4980
      5 O2         -0.1975   -2.5652    0.6721 O.3       1 <0>        -0.6250
      6 C4          1.1715   -2.2980    2.5870 C.2       1 <0>        -0.4600
      7 C5          1.2759   -3.7485    2.7948 C.2       1 <0>         0.3116
      8 S1          2.3012   -3.9008    4.2424 S.3       1 <0>        -0.1001
      9 C6          2.6042   -2.1823    4.5960 C.2       1 <0>        -0.1423
     10 C7          3.3389   -1.6533    5.6058 C.2       1 <0>        -0.0473
     11 C8          3.8546   -2.5224    6.6725 C.ar      1 <0>        -0.0339
     12 C9          3.2914   -3.7862    6.8842 C.ar      1 <0>        -0.0880
     13 C10         3.7803   -4.5955    7.8865 C.ar      1 <0>        -0.0971
     14 C11         4.8268   -4.1616    8.6849 C.ar      1 <0>        -0.0272
     15 C12         5.3901   -2.9127    8.4826 C.ar      1 <0>        -0.1034
     16 C13         4.9160   -2.0928    7.4789 C.ar      1 <0>        -0.0148
     17 Cl1         5.6283   -0.5307    7.2215 Cl        1 <0>        -0.0514
     18 Cl2         5.4344   -5.1888    9.9456 Cl        1 <0>        -0.0644
     19 C14         1.8772   -1.4703    3.5343 C.2       1 <0>         0.4245
     20 O3          1.8681   -0.2530    3.4616 O.2       1 <0>        -0.4854
     21 N1          0.7355   -4.7130    2.0769 N.2       1 <0>        -0.4685
     22 C15         0.9420   -6.0200    2.4219 C.ar      1 <0>         0.0935
     23 C16         2.2219   -6.4591    2.7706 C.ar      1 <0>        -0.1301
     24 C17         2.4250   -7.7780    3.1178 C.ar      1 <0>        -0.1253
     25 C18         1.3606   -8.6692    3.1208 C.ar      1 <0>         0.0911
     26 C19         0.0872   -8.2378    2.7752 C.ar      1 <0>        -0.1878
     27 C20        -0.1273   -6.9195    2.4325 C.ar      1 <0>        -0.0844
     28 O4          1.5661   -9.9690    3.4630 O.3       1 <0>        -0.3221
     29 C21         0.4275  -10.8323    3.4453 C.3       1 <0>         0.0296
     30 H1          0.6738    1.9341    0.1723 H         1 <0>         0.0614
     31 H2         -0.9441    1.9695   -0.5688 H         1 <0>         0.0675
     32 H3         -0.7765    1.9774    1.2033 H         1 <0>         0.0614
     33 H4         -1.4281   -0.2694    0.3810 H         1 <0>         0.0558
     34 H5          0.0222   -0.3127   -0.6499 H         1 <0>         0.0558
     35 H6          3.5449   -0.5934    5.6259 H         1 <0>         0.1524
     36 H7          2.4754   -4.1260    6.2637 H         1 <0>         0.1614
     37 H8          3.3465   -5.5708    8.0507 H         1 <0>         0.1421
     38 H9          6.2054   -2.5816    9.1088 H         1 <0>         0.1438
     39 H10         3.0507   -5.7667    2.7679 H         1 <0>         0.1329
     40 H11         3.4138   -8.1184    3.3875 H         1 <0>         0.1263
     41 H12        -0.7376   -8.9350    2.7787 H         1 <0>         0.1250
     42 H13        -1.1191   -6.5838    2.1681 H         1 <0>         0.1274
     43 H14        -0.3215  -10.4603    4.1444 H         1 <0>         0.0522
     44 H15         0.0060  -10.8572    2.4404 H         1 <0>         0.0520
     45 H16         0.7295  -11.8381    3.7376 H         1 <0>         0.0942
@<TRIPOS>BOND
     1    1    2 1
     2    1   30 1
     3    1   31 1
     4    1   32 1
     5    2    3 1
     6    2   33 1
     7    2   34 1
     8    3    4 1
     9    4    5 1
    10    4    6 2
    11    6    7 1
    12    6   19 1
    13    7   21 2
    14    7    8 1
    15    8    9 1
    16    9   10 2
    17    9   19 1
    18   10   11 1
    19   10   35 1
    20   11   16 ar
    21   11   12 ar
    22   12   13 ar
    23   12   36 1
    24   13   14 ar
    25   13   37 1
    26   14   15 ar
    27   14   18 1
    28   15   16 ar
    29   15   38 1
    30   16   17 1
    31   19   20 2
    32   21   22 1
    33   22   27 ar
    34   22   23 ar
    35   23   24 ar
    36   23   39 1
    37   24   25 ar
    38   24   40 1
    39   25   26 ar
    40   25   28 1
    41   26   27 ar
    42   26   41 1
    43   27   42 1
    44   28   29 1
    45   29   43 1
    46   29   44 1
    47   29   45 1
@<TRIPOS>MOLECULE
ZINC63653164
   36    38     0     0     0
SMALL
USER_CHARGES

@<TRIPOS>ATOM
      1 C1         -0.0184    1.5028    0.0103 C.3       1 <0>        -0.1160
      2 C2          0.0021   -0.0041    0.0020 C.ar      1 <0>        -0.0197
      3 C3          0.0057   -0.6874   -1.1983 C.ar      1 <0>        -0.1763
      4 C4          0.0245   -2.0761   -1.2052 C.ar      1 <0>         0.2957
      5 C5          0.0397   -2.7738   -0.0040 C.ar      1 <0>        -0.2643
      6 C6          0.0360   -2.0852    1.1929 C.ar      1 <0>        -0.0303
      7 C7          0.0229   -0.7014    1.1966 C.ar      1 <0>        -0.1873
      8 Br1         0.0256    0.2379    2.8377 Br        1 <0>        -0.0963
      9 N1          0.0278   -2.7701   -2.4178 N.2       1 <0>        -1.0820
     10 S1          0.0503   -4.4260   -2.4241 S.o2      1 <0>         2.6302
     11 O1          1.3038   -4.8172   -1.8812 O.2       1 <0>        -1.0155
     12 O2         -1.1866   -4.8510   -1.8685 O.2       1 <0>        -1.0164
     13 C8          0.0487   -4.9406   -4.1093 C.2       1 <0>        -0.6623
     14 C9          1.1008   -5.1809   -4.9294 C.2       1 <0>        -0.0443
     15 C10         0.8590   -5.5813   -6.2302 C.2       1 <0>        -0.1546
     16 C11        -0.4230   -5.7217   -6.6472 C.2       1 <0>        -0.1308
     17 S2         -1.3390   -5.2884   -5.1773 S.3       1 <0>         0.1826
     18 C12        -0.9408   -6.1405   -7.9991 C.3       1 <0>         0.0467
     19 H1         -0.1732   -6.6797   -8.5542 H         1 <0>         0.1643
     20 C13        -1.4255   -4.9353   -8.7854 C.2       1 <0>        -0.1390
     21 C14        -2.7229   -5.1800   -8.9813 C.2       1 <0>        -0.0415
     22 N2         -3.0786   -6.3586   -8.4237 N.2       1 <0>        -0.1544
     23 N3         -2.1562   -6.9607   -7.8602 N.2       1 <0>        -0.1457
     24 C15        -3.6635   -4.2661   -9.7236 C.3       1 <0>        -0.0858
     25 H2          1.0042    1.8801    0.0026 H         1 <0>         0.0673
     26 H3         -0.5455    1.8639   -0.8728 H         1 <0>         0.0633
     27 H4         -0.5286    1.8543    0.9071 H         1 <0>         0.0686
     28 H5         -0.0064   -0.1424   -2.1307 H         1 <0>         0.1210
     29 H6          0.0540   -3.8537   -0.0062 H         1 <0>         0.1043
     30 H7          0.0474   -2.6271    2.1271 H         1 <0>         0.1134
     31 H8          2.1129   -5.0611   -4.5720 H         1 <0>         0.1491
     32 H9          1.6794   -5.7789   -6.9042 H         1 <0>         0.1407
     33 H10        -0.8534   -4.0788   -9.1104 H         1 <0>         0.1771
     34 H11        -3.6664   -4.5291  -10.7814 H         1 <0>         0.0787
     35 H12        -4.6700   -4.3747   -9.3194 H         1 <0>         0.0808
     36 H13        -3.3345   -3.2335   -9.6068 H         1 <0>         0.0785
@<TRIPOS>BOND
     1    1    2 1
     2    1   25 1
     3    1   26 1
     4    1   27 1
     5    2    7 ar
     6    2    3 ar
     7    3    4 ar
     8    3   28 1
     9    4    5 ar
    10    4    9 1
    11    5    6 ar
    12    5   29 1
    13    6    7 ar
    14    6   30 1
    15    7    8 1
    16    9   10 1
    17   10   11 2
    18   10   12 2
    19   10   13 1
    20   13   17 1
    21   13   14 2
    22   14   15 1
    23   14   31 1
    24   15   16 2
    25   15   32 1
    26   16   17 1
    27   16   18 1
    28   18   19 1
    29   18   23 1
    30   18   20 1
    31   20   21 2
    32   20   33 1
    33   21   22 1
    34   21   24 1
    35   22   23 2
    36   24   34 1
    37   24   35 1
    38   24   36 1
@<TRIPOS>MOLECULE
ZINC65004283
   45    48     0     0     0
SMALL
USER_CHARGES

@<TRIPOS>ATOM
      1 C1         -0.0184    1.5028    0.0103 C.3       1 <0>        -0.1056
      2 C2          0.0021   -0.0041    0.0020 C.ar      1 <0>        -0.0552
      3 C3          0.0057   -0.6882   -1.2000 C.ar      1 <0>        -0.2199
      4 C4          0.0240   -2.0707   -1.2121 C.ar      1 <0>        -0.0694
      5 C5          0.0391   -2.7732   -0.0230 C.ar      1 <0>        -0.2674
      6 C6          0.0360   -2.0893    1.1859 C.ar      1 <0>         0.2812
      7 C7          0.0228   -0.7000    1.1944 C.ar      1 <0>        -0.1500
      8 C8          0.0251    0.0464    2.5036 C.3       1 <0>        -0.0799
      9 N1          0.0513   -2.7965    2.3902 N.2       1 <0>        -1.0808
     10 S1          0.0732   -4.4524    2.3779 S.o2      1 <0>         2.6247
     11 O1         -1.1695   -4.8709    1.8301 O.2       1 <0>        -1.0182
     12 O2          1.3210   -4.8378    1.8179 O.2       1 <0>        -1.0209
     13 C9          0.0885   -4.9857    4.0572 C.2       1 <0>        -0.6588
     14 C10        -0.9601   -5.2633    4.8738 C.2       1 <0>        -0.0457
     15 C11        -0.7152   -5.6704    6.1667 C.2       1 <0>        -0.1414
     16 C12         0.5862   -5.7817    6.5861 C.2       1 <0>        -0.0969
     17 S2          1.4867   -5.3074    5.1193 S.3       1 <0>         0.1969
     18 C13         1.1051   -6.1909    7.9017 C.2       1 <0>         0.0385
     19 C14         0.3693   -6.5543    8.9869 C.2       1 <0>        -0.0020
     20 N2          1.2269   -6.8511    9.9745 N.2       1 <0>        -0.4743
     21 C15         2.4450   -6.6854    9.5411 C.2       1 <0>         0.2095
     22 O3          2.4045   -6.2836    8.2623 O.3       1 <0>        -0.1928
     23 C16         3.6981   -6.9146   10.3462 C.3       1 <0>        -0.0266
     24 C17         3.6084   -8.1210   11.2956 C.3       1 <0>        -0.1213
     25 C18         4.3598   -7.2644   12.3283 C.3       1 <0>        -0.1395
     26 C19         3.7931   -6.0328   11.6025 C.3       1 <0>        -0.1235
     27 H1          1.0042    1.8801    0.0026 H         1 <0>         0.0595
     28 H2         -0.5455    1.8639   -0.8728 H         1 <0>         0.0546
     29 H3         -0.5286    1.8543    0.9071 H         1 <0>         0.0614
     30 H4         -0.0061   -0.1414   -2.1312 H         1 <0>         0.1003
     31 H5          0.0260   -2.6019   -2.1525 H         1 <0>         0.1008
     32 H6          0.0530   -3.8531   -0.0331 H         1 <0>         0.0949
     33 H7         -1.0019    0.2123    2.8290 H         1 <0>         0.0461
     34 H8          0.5541   -0.5398    3.2551 H         1 <0>         0.0705
     35 H9          0.5247    1.0064    2.3736 H         1 <0>         0.0399
     36 H10        -1.9738   -5.1657    4.5142 H         1 <0>         0.1523
     37 H11        -1.5313   -5.8970    6.8368 H         1 <0>         0.1441
     38 H12        -0.7085   -6.5959    9.0429 H         1 <0>         0.1913
     39 H13         4.6012   -6.9038    9.7359 H         1 <0>         0.1188
     40 H14         2.5891   -8.3683   11.5923 H         1 <0>         0.0980
     41 H15         4.1731   -8.9884   10.9540 H         1 <0>         0.0755
     42 H16         3.9877   -7.3811   13.3461 H         1 <0>         0.0765
     43 H17         5.4443   -7.3504   12.2606 H         1 <0>         0.0852
     44 H18         4.5069   -5.2144   11.5086 H         1 <0>         0.0771
     45 H19         2.8243   -5.7092   11.9830 H         1 <0>         0.0925
@<TRIPOS>BOND
     1    1    2 1
     2    1   27 1
     3    1   28 1
     4    1   29 1
     5    2    7 ar
     6    2    3 ar
     7    3    4 ar
     8    3   30 1
     9    4    5 ar
    10    4   31 1
    11    5    6 ar
    12    5   32 1
    13    6    7 ar
    14    6    9 1
    15    7    8 1
    16    8   33 1
    17    8   34 1
    18    8   35 1
    19    9   10 1
    20   10   11 2
    21   10   12 2
    22   10   13 1
    23   13   17 1
    24   13   14 2
    25   14   15 1
    26   14   36 1
    27   15   16 2
    28   15   37 1
    29   16   17 1
    30   16   18 1
    31   18   22 1
    32   18   19 2
    33   19   20 1
    34   19   38 1
    35   20   21 2
    36   21   22 1
    37   21   23 1
    38   23   26 1
    39   23   24 1
    40   23   39 1
    41   24   25 1
    42   24   40 1
    43   24   41 1
    44   25   26 1
    45   25   42 1
    46   25   43 1
    47   26   44 1
    48   26   45 1
@<TRIPOS>MOLECULE
ZINC06782329
   52    55     0     0     0
SMALL
USER_CHARGES
(5S)-4-benzoyl-1-(2-furylmethyl)-3-hydroxy-5-(4-isopropylphenyl)-5H-pyrrol-2-one
@<TRIPOS>ATOM
      1 C1          3.0567    0.8393   -2.9735 C.3       1 <0>        -0.1443
      2 C2          2.4357    0.2740   -1.6946 C.3       1 <0>        -0.0544
      3 C3          3.4845    0.2616   -0.5807 C.3       1 <0>        -0.1425
      4 C4          1.2711    1.1352   -1.2785 C.ar      1 <0>        -0.0878
      5 C5          0.0054    0.5875   -1.1844 C.ar      1 <0>        -0.1190
      6 C6         -1.0639    1.3788   -0.8082 C.ar      1 <0>        -0.0882
      7 C7         -0.8656    2.7153   -0.5160 C.ar      1 <0>        -0.0775
      8 C8          0.4001    3.2629   -0.6101 C.ar      1 <0>        -0.1111
      9 C9          1.4685    2.4729   -0.9913 C.ar      1 <0>        -0.1165
     10 C10        -2.0303    3.5767   -0.1008 C.3       1 <0>         0.2648
     11 H1         -1.6335    4.4878    0.3708 H         1 <0>         0.0682
     12 C11        -2.9004    3.8855   -1.2968 C.2       1 <0>        -0.4943
     13 C12        -4.1253    3.3743   -1.0312 C.2       1 <0>         0.2641
     14 C13        -4.1056    2.7340    0.3011 C.2       1 <0>         0.5148
     15 O1         -5.0540    2.1837    0.8243 O.2       1 <0>        -0.5303
     16 N1         -2.8820    2.8503    0.8483 N.am      1 <0>        -0.6082
     17 C14        -2.4724    2.3418    2.1598 C.3       1 <0>         0.2134
     18 C15        -2.7160    3.3982    3.2066 C.2       1 <0>        -0.0279
     19 C16        -3.8484    3.5573    3.9150 C.2       1 <0>        -0.1904
     20 C17        -3.6416    4.6596    4.7757 C.2       1 <0>        -0.2151
     21 C18        -2.3952    5.1083    4.5419 C.2       1 <0>        -0.0454
     22 O2         -1.8372    4.3368    3.5946 O.3       1 <0>        -0.1724
     23 O3         -5.1970    3.4387   -1.8542 O.3       1 <0>        -0.6516
     24 C19        -2.4961    4.6011   -2.5106 C.2       1 <0>         0.5022
     25 O4         -2.4970    4.0277   -3.5836 O.2       1 <0>        -0.4733
     26 C20        -2.0872    6.0198   -2.4308 C.ar      1 <0>        -0.1362
     27 C21        -2.2012    6.7159   -1.2254 C.ar      1 <0>        -0.0647
     28 C22        -1.8129    8.0376   -1.1567 C.ar      1 <0>        -0.1386
     29 C23        -1.3213    8.6770   -2.2813 C.ar      1 <0>        -0.1080
     30 C24        -1.2111    7.9948   -3.4803 C.ar      1 <0>        -0.1384
     31 C25        -1.5907    6.6714   -3.5618 C.ar      1 <0>        -0.0758
     32 H2          2.3026    0.8482   -3.7743 H         1 <0>         0.0572
     33 H3          3.9068    0.2107   -3.2772 H         1 <0>         0.0535
     34 H4          3.4071    1.8654   -2.7884 H         1 <0>         0.0563
     35 H5          2.0707   -0.7477   -1.8760 H         1 <0>         0.0739
     36 H6          3.0380   -0.1448    0.3388 H         1 <0>         0.0548
     37 H7          3.8349    1.2877   -0.3956 H         1 <0>         0.0561
     38 H8          4.3345   -0.3670   -0.8845 H         1 <0>         0.0535
     39 H9         -0.1489   -0.4575   -1.4090 H         1 <0>         0.1151
     40 H10        -2.0536    0.9520   -0.7390 H         1 <0>         0.1165
     41 H11         0.5543    4.3081   -0.3861 H         1 <0>         0.1171
     42 H12         2.4573    2.9008   -1.0652 H         1 <0>         0.1146
     43 H13        -3.0572    1.4425    2.4033 H         1 <0>         0.1115
     44 H14        -1.4023    2.0882    2.1369 H         1 <0>         0.0939
     45 H15        -4.7439    2.9582    3.8401 H         1 <0>         0.1483
     46 H16        -4.3485    5.0638    5.4851 H         1 <0>         0.1451
     47 H17        -1.9220    5.9445    5.0350 H         1 <0>         0.1993
     48 H18        -2.5889    6.2193   -0.3482 H         1 <0>         0.1318
     49 H19        -1.8967    8.5760   -0.2242 H         1 <0>         0.1205
     50 H20        -1.0226    9.7133   -2.2230 H         1 <0>         0.1178
     51 H21        -0.8266    8.4998   -4.3541 H         1 <0>         0.1200
     52 H22        -1.5039    6.1400   -4.4981 H         1 <0>         0.1276
@<TRIPOS>BOND
     1    1    2 1
     2    1   32 1
     3    1   33 1
     4    1   34 1
     5    2    3 1
     6    2    4 1
     7    2   35 1
     8    3   36 1
     9    3   37 1
    10    3   38 1
    11    4    9 ar
    12    4    5 ar
    13    5    6 ar
    14    5   39 1
    15    6    7 ar
    16    6   40 1
    17    7    8 ar
    18    7   10 1
    19    8    9 ar
    20    8   41 1
    21    9   42 1
    22   10   11 1
    23   10   16 1
    24   10   12 1
    25   12   13 2
    26   12   24 1
    27   13   14 1
    28   13   23 1
    29   14   15 2
    30   14   16 am
    31   16   17 1
    32   17   18 1
    33   17   43 1
    34   17   44 1
    35   18   22 1
    36   18   19 2
    37   19   20 1
    38   19   45 1
    39   20   21 2
    40   20   46 1
    41   21   22 1
    42   21   47 1
    43   24   25 2
    44   24   26 1
    45   26   31 ar
    46   26   27 ar
    47   27   28 ar
    48   27   48 1
    49   28   29 ar
    50   28   49 1
    51   29   30 ar
    52   29   50 1
    53   30   31 ar
    54   30   51 1
    55   31   52 1
@<TRIPOS>MOLECULE
ZINC27516985
   43    47     0     0     0
SMALL
USER_CHARGES
(2-chlorophenoxy)methyl-methyl-BLAHone
@<TRIPOS>ATOM
      1 C1         -1.7609   -3.3712   -0.0844 C.3       1 <0>        -0.1464
      2 C2         -0.6700   -2.3395   -0.3785 C.3       1 <0>        -0.0871
      3 H1         -0.4289   -2.3730   -1.4512 H         1 <0>         0.0732
      4 C3          0.5807   -2.6612    0.4447 C.3       1 <0>        -0.1125
      5 C4          1.7493   -1.7935   -0.0243 C.3       1 <0>        -0.0592
      6 C5          1.3119   -0.3315   -0.0124 C.2       1 <0>        -0.0133
      7 C6          0.0021   -0.0041    0.0020 C.2       1 <0>        -0.2286
      8 S1         -0.0220    1.7683    0.0118 S.3       1 <0>         0.0638
      9 C7          1.7287    2.0553   -0.0034 C.2       1 <0>         0.1916
     10 C8          2.2710    0.7724   -0.0156 C.2       1 <0>        -0.2715
     11 C9          3.7521    0.7111   -0.0297 C.2       1 <0>         0.3766
     12 N1          4.6034   -0.2934   -0.0427 N.2       1 <0>        -0.5553
     13 C10         5.8489    0.1793   -0.0511 C.2       1 <0>         0.2118
     14 N2          5.8207    1.4871   -0.0478 N.2       1 <0>        -0.2817
     15 N3          4.4701    1.8706   -0.0315 N.pl3     1 <0>        -0.3754
     16 C11         3.8635    3.0682   -0.0186 C.2       1 <0>         0.6636
     17 O1          4.5394    4.0792   -0.0199 O.3       1 <0>        -0.5512
     18 N4          2.5199    3.1715   -0.0049 N.2       1 <0>        -0.5928
     19 C12         7.0983   -0.6632   -0.0666 C.3       1 <0>         0.1650
     20 O2          8.2464    0.1875   -0.0722 O.3       1 <0>        -0.2840
     21 C13         9.4632   -0.4182   -0.0862 C.ar      1 <0>         0.1470
     22 C14         9.5502   -1.8025   -0.0887 C.ar      1 <0>        -0.2021
     23 C15        10.7879   -2.4159   -0.1087 C.ar      1 <0>        -0.0753
     24 C16        11.9401   -1.6514   -0.1147 C.ar      1 <0>        -0.1525
     25 C17        11.8572   -0.2715   -0.1065 C.ar      1 <0>        -0.0741
     26 C18        10.6210    0.3475   -0.0922 C.ar      1 <0>        -0.0707
     27 Cl1        10.5170    2.0804   -0.0813 Cl        1 <0>        -0.0494
     28 C19        -1.1678   -0.9392    0.0078 C.3       1 <0>        -0.0147
     29 H2         -1.4022   -4.3734   -0.3619 H         1 <0>         0.0539
     30 H3         -2.6612   -3.1294   -0.6683 H         1 <0>         0.0538
     31 H4         -2.0035   -3.3526    0.9883 H         1 <0>         0.0543
     32 H5          0.3821   -2.4590    1.5076 H         1 <0>         0.0628
     33 H6          0.8417   -3.7220    0.3159 H         1 <0>         0.0620
     34 H7          2.6043   -1.9323    0.6537 H         1 <0>         0.0819
     35 H8          2.0384   -2.0878   -1.0440 H         1 <0>         0.0719
     36 H9          7.1203   -1.3029    0.8280 H         1 <0>         0.0921
     37 H10         7.1045   -1.2934   -0.9682 H         1 <0>         0.0922
     38 H11         8.6509   -2.4004   -0.0791 H         1 <0>         0.1394
     39 H12        10.8557   -3.4937   -0.1148 H         1 <0>         0.1304
     40 H13        12.9066   -2.1333   -0.1255 H         1 <0>         0.1308
     41 H14        12.7586    0.3234   -0.1109 H         1 <0>         0.1376
     42 H15        -1.9213   -0.6042   -0.7202 H         1 <0>         0.0705
     43 H16        -1.6173   -0.9737    1.0112 H         1 <0>         0.0715
@<TRIPOS>BOND
     1    1    2 1
     2    1   29 1
     3    1   30 1
     4    1   31 1
     5    2    3 1
     6    2   28 1
     7    2    4 1
     8    4    5 1
     9    4   32 1
    10    4   33 1
    11    5    6 1
    12    5   34 1
    13    5   35 1
    14    6   10 1
    15    6    7 2
    16    7    8 1
    17    7   28 1
    18    8    9 1
    19    9   18 1
    20    9   10 2
    21   10   11 1
    22   11   15 1
    23   11   12 2
    24   12   13 1
    25   13   14 2
    26   13   19 1
    27   14   15 1
    28   15   16 1
    29   16   17 1
    30   16   18 2
    31   19   20 1
    32   19   36 1
    33   19   37 1
    34   20   21 1
    35   21   26 ar
    36   21   22 ar
    37   22   23 ar
    38   22   38 1
    39   23   24 ar
    40   23   39 1
    41   24   25 ar
    42   24   40 1
    43   25   26 ar
    44   25   41 1
    45   26   27 1
    46   28   42 1
    47   28   43 1
@<TRIPOS>MOLECULE
ZINC35531283
   49    52     0     0     0
SMALL
USER_CHARGES

@<TRIPOS>ATOM
      1 C1         -0.0184    1.5028    0.0103 C.3       1 <0>        -0.1155
      2 C2          0.0021   -0.0041    0.0020 C.ar      1 <0>        -0.0805
      3 C3          0.0057   -0.6887   -1.1989 C.ar      1 <0>        -0.1257
      4 C4          0.0245   -2.0709   -1.2065 C.ar      1 <0>        -0.0907
      5 C5          0.0400   -2.7685   -0.0132 C.ar      1 <0>        -0.0952
      6 C6          0.0373   -2.0839    1.1877 C.ar      1 <0>        -0.0896
      7 C7          0.0229   -0.7016    1.1953 C.ar      1 <0>        -0.1247
      8 C8          0.0595   -4.2753   -0.0215 C.3       1 <0>         0.0995
      9 O1          1.4127   -4.7342   -0.0315 O.3       1 <0>        -0.2995
     10 C9          1.6083   -6.0800   -0.0399 C.ar      1 <0>         0.0972
     11 C10         0.5215   -6.9395   -0.0443 C.ar      1 <0>        -0.1695
     12 C11         0.7220   -8.3073   -0.0533 C.ar      1 <0>        -0.0829
     13 C12         2.0056   -8.8208   -0.0575 C.ar      1 <0>        -0.0689
     14 C13         3.0943   -7.9688   -0.0526 C.ar      1 <0>        -0.1637
     15 C14         2.9003   -6.5968   -0.0499 C.ar      1 <0>         0.0975
     16 O2          3.9701   -5.7572   -0.0512 O.3       1 <0>        -0.3080
     17 C15         5.2665   -6.3584   -0.0616 C.3       1 <0>         0.0268
     18 C16         2.2185  -10.3127   -0.0668 C.3       1 <0>         0.0821
     19 H1          3.2887  -10.5196   -0.0689 H         1 <0>         0.0783
     20 C17         1.6126  -10.8979    1.1593 C.2       1 <0>        -0.3215
     21 C18         0.9171  -12.0618    1.3070 C.2       1 <0>         0.1623
     22 N1          0.5058  -12.3174    2.5485 N.2       1 <0>        -0.6398
     23 C19         0.7531  -11.4979    3.5443 C.2       1 <0>         0.4280
     24 O3          0.4002  -11.6255    4.8467 O.3       1 <0>        -0.6274
     25 S1          1.6153  -10.2502    2.8120 S.3       1 <0>        -0.0928
     26 S2          0.6108  -13.1153   -0.0935 S.3       1 <0>        -0.0876
     27 C20         1.7456  -12.4234   -1.3371 C.3       1 <0>        -0.0931
     28 C21         1.5944  -10.8981   -1.3321 C.3       1 <0>        -0.1475
     29 H2          0.5362  -10.6389   -1.3664 H         1 <0>         0.1087
     30 C22         2.2862  -10.3247   -2.5419 C.2       1 <0>         0.3587
     31 O4          1.6545   -9.6974   -3.3579 O.2       1 <0>        -0.4518
     32 H3          1.0042    1.8801    0.0026 H         1 <0>         0.0709
     33 H4         -0.5455    1.8639   -0.8728 H         1 <0>         0.0660
     34 H5         -0.5286    1.8543    0.9071 H         1 <0>         0.0663
     35 H6         -0.0064   -0.1436   -2.1312 H         1 <0>         0.1230
     36 H7          0.0266   -2.6057   -2.1448 H         1 <0>         0.1241
     37 H8          0.0491   -2.6289    2.1200 H         1 <0>         0.1255
     38 H9          0.0245   -0.1667    2.1335 H         1 <0>         0.1236
     39 H10        -0.4447   -4.6501    0.8693 H         1 <0>         0.0708
     40 H11        -0.4546   -4.6404   -0.9106 H         1 <0>         0.0692
     41 H12        -0.4823   -6.5409   -0.0404 H         1 <0>         0.1321
     42 H13        -0.1259   -8.9762   -0.0568 H         1 <0>         0.1259
     43 H14         4.0960   -8.3725   -0.0555 H         1 <0>         0.1331
     44 H15         6.0284   -5.5789   -0.0616 H         1 <0>         0.0962
     45 H16         5.3849   -6.9822    0.8243 H         1 <0>         0.0555
     46 H17         5.3750   -6.9725   -0.9556 H         1 <0>         0.0520
     47 H18         2.7720  -12.6921   -1.0873 H         1 <0>         0.0962
     48 H19         1.4927  -12.8144   -2.3227 H         1 <0>         0.1111
     49 H20         3.3468  -10.4749   -2.6792 H         1 <0>         0.0951
@<TRIPOS>BOND
     1    1    2 1
     2    1   32 1
     3    1   33 1
     4    1   34 1
     5    2    7 ar
     6    2    3 ar
     7    3    4 ar
     8    3   35 1
     9    4    5 ar
    10    4   36 1
    11    5    6 ar
    12    5    8 1
    13    6    7 ar
    14    6   37 1
    15    7   38 1
    16    8    9 1
    17    8   39 1
    18    8   40 1
    19    9   10 1
    20   10   15 ar
    21   10   11 ar
    22   11   12 ar
    23   11   41 1
    24   12   13 ar
    25   12   42 1
    26   13   14 ar
    27   13   18 1
    28   14   15 ar
    29   14   43 1
    30   15   16 1
    31   16   17 1
    32   17   44 1
    33   17   45 1
    34   17   46 1
    35   18   19 1
    36   18   28 1
    37   18   20 1
    38   20   25 1
    39   20   21 2
    40   21   22 1
    41   21   26 1
    42   22   23 2
    43   23   24 1
    44   23   25 1
    45   26   27 1
    46   27   28 1
    47   27   47 1
    48   27   48 1
    49   28   29 1
    50   28   30 1
    51   30   31 2
    52   30   49 1
@<TRIPOS>MOLECULE
ZINC39864040
   43    46     0     0     0
SMALL
USER_CHARGES

@<TRIPOS>ATOM
      1 C1          0.2914    1.8715   -1.8386 C.ar      1 <0>        -0.1091
      2 C2          0.3187    0.8644   -0.8914 C.ar      1 <0>        -0.1098
      3 C3          1.4655    0.1165   -0.7093 C.ar      1 <0>        -0.0906
      4 C4          2.5918    0.3768   -1.4786 C.ar      1 <0>         0.1189
      5 C5          2.5612    1.3888   -2.4290 C.ar      1 <0>        -0.0929
      6 C6          1.4115    2.1332   -2.6063 C.ar      1 <0>        -0.1100
      7 N1          3.7566   -0.3797   -1.2960 N.am      1 <0>        -0.4961
      8 C7          4.8544    0.2059   -0.8482 C.2       1 <0>         0.5630
      9 O1          4.8814    1.3938   -0.5876 O.2       1 <0>        -0.4756
     10 C8          6.0484   -0.6517   -0.6785 C.2       1 <0>        -0.2480
     11 C9          7.2901   -0.3218   -0.2422 C.2       1 <0>         0.1000
     12 C10         8.3864   -1.2939   -0.3435 C.ar      1 <0>        -0.1236
     13 C11         8.2007   -2.4886   -1.0514 C.ar      1 <0>        -0.0935
     14 C12         9.2204   -3.3914   -1.1455 C.ar      1 <0>        -0.0893
     15 C13        10.4510   -3.1238   -0.5351 C.ar      1 <0>        -0.0910
     16 C14        10.6372   -1.9309    0.1726 C.ar      1 <0>        -0.0946
     17 C15         9.6204   -1.0244    0.2628 C.ar      1 <0>        -0.0856
     18 C16        11.5512   -4.0989   -0.6372 C.2       1 <0>         0.5148
     19 O2         11.3886   -5.1419   -1.2553 O.co2     1 <0>        -0.6783
     20 O3         12.6270   -3.8654   -0.1038 O.co2     1 <0>        -0.6789
     21 S1          5.4153   -2.2387   -1.2020 S.3       1 <0>         0.0017
     22 C17         3.7461   -1.7304   -1.5799 C.2       1 <0>         0.3803
     23 N2          2.7506   -2.4633   -2.0227 N.2       1 <0>        -0.4571
     24 C18         2.9328   -3.8009   -2.2476 C.ar      1 <0>         0.0758
     25 C19         3.6894   -4.5758   -1.3601 C.ar      1 <0>        -0.1026
     26 C20         3.8429   -5.9237   -1.6329 C.ar      1 <0>        -0.1415
     27 C21         3.2503   -6.4585   -2.7624 C.ar      1 <0>         0.1097
     28 N3          2.5422   -5.7056   -3.5826 N.ar      1 <0>        -0.4632
     29 C22         2.3619   -4.4185   -3.3645 C.ar      1 <0>         0.1895
     30 Cl1         1.4140   -3.4811   -4.4765 Cl        1 <0>        -0.0147
     31 H1         -0.6079    2.4520   -1.9822 H         1 <0>         0.1274
     32 H2         -0.5575    0.6627   -0.2931 H         1 <0>         0.1297
     33 H3          1.4862   -0.6696    0.0309 H         1 <0>         0.1241
     34 H4          3.4358    1.5938   -3.0286 H         1 <0>         0.1242
     35 H5          1.3870    2.9202   -3.3455 H         1 <0>         0.1299
     36 H6          7.4723    0.6555    0.1797 H         1 <0>         0.1585
     37 H7          7.2509   -2.6954   -1.5222 H         1 <0>         0.1234
     38 H8          9.0773   -4.3126   -1.6908 H         1 <0>         0.1358
     39 H9         11.5870   -1.7255    0.6439 H         1 <0>         0.1368
     40 H10         9.7657   -0.1018    0.8051 H         1 <0>         0.1276
     41 H11         4.1418   -4.1327   -0.4852 H         1 <0>         0.1525
     42 H12         4.4200   -6.5519   -0.9706 H         1 <0>         0.1515
     43 H13         3.3694   -7.5103   -2.9770 H         1 <0>         0.1712
@<TRIPOS>BOND
     1    1    6 ar
     2    1    2 ar
     3    1   31 1
     4    2    3 ar
     5    2   32 1
     6    3    4 ar
     7    3   33 1
     8    4    5 ar
     9    4    7 1
    10    5    6 ar
    11    5   34 1
    12    6   35 1
    13    7   22 1
    14    7    8 am
    15    8    9 2
    16    8   10 1
    17   10   11 2
    18   10   21 1
    19   11   12 1
    20   11   36 1
    21   12   17 ar
    22   12   13 ar
    23   13   14 ar
    24   13   37 1
    25   14   15 ar
    26   14   38 1
    27   15   16 ar
    28   15   18 1
    29   16   17 ar
    30   16   39 1
    31   17   40 1
    32   18   19 2
    33   18   20 1
    34   21   22 1
    35   22   23 2
    36   23   24 1
    37   24   29 ar
    38   24   25 ar
    39   25   26 ar
    40   25   41 1
    41   26   27 ar
    42   26   42 1
    43   27   28 ar
    44   27   43 1
    45   28   29 ar
    46   29   30 1
@<TRIPOS>MOLECULE
ZINC13120489
   54    58     0     0     0
SMALL
USER_CHARGES

@<TRIPOS>ATOM
      1 C1         -0.0178    1.4608    0.0101 C.3       1 <0>         0.0953
      2 N1          0.0021   -0.0041    0.0020 N.pl3     1 <0>        -0.6421
      3 C2          0.0241   -0.7433    1.2666 C.3       1 <0>         0.0966
      4 C3         -0.0000   -0.6959   -1.2114 C.ar      1 <0>         0.2095
      5 C4          0.0130   -2.0849   -1.2208 C.ar      1 <0>        -0.1974
      6 C5          0.0104   -2.7658   -2.4223 C.ar      1 <0>        -0.0644
      7 C6         -0.0046   -2.0664   -3.6151 C.ar      1 <0>        -0.1367
      8 C7         -0.0176   -0.6836   -3.6094 C.ar      1 <0>        -0.0414
      9 C8         -0.0209    0.0035   -2.4114 C.ar      1 <0>        -0.1931
     10 C9         -0.0064   -2.8128   -4.9243 C.3       1 <0>         0.1521
     11 H1          0.3653   -3.8281   -4.7860 H         1 <0>         0.0782
     12 C10        -1.4213   -2.8318   -5.5358 C.3       1 <0>        -0.0965
     13 C11        -1.2591   -2.1063   -6.8524 C.2       1 <0>         0.2252
     14 C12        -2.3364   -1.8570   -7.8229 C.2       1 <0>        -0.4152
     15 C13        -3.6470   -2.2860   -7.5866 C.2       1 <0>         0.3650
     16 O1         -3.9795   -2.9479   -6.4553 O.3       1 <0>        -0.6304
     17 C14        -4.6468   -1.9855   -8.6212 C.ar      1 <0>        -0.1613
     18 C15        -6.0129   -2.1331   -8.3631 C.ar      1 <0>        -0.0423
     19 C16        -6.9226   -1.8437   -9.3414 C.ar      1 <0>        -0.1612
     20 C17        -6.5008   -1.4048  -10.5879 C.ar      1 <0>        -0.0827
     21 C18        -5.1569   -1.2541  -10.8628 C.ar      1 <0>        -0.1504
     22 C19        -4.2162   -1.5440   -9.8845 C.ar      1 <0>         0.1515
     23 O2         -2.8920   -1.4102  -10.1372 O.3       1 <0>        -0.3051
     24 C20        -2.0856   -1.1405   -9.0816 C.2       1 <0>         0.5312
     25 O3         -1.1786   -0.3332   -9.1727 O.2       1 <0>        -0.4792
     26 N2         -0.0304   -1.7393   -6.9933 N.2       1 <0>        -0.2964
     27 N3          0.7985   -2.0990   -5.9283 N.pl3     1 <0>        -0.4730
     28 C21         2.1628   -1.8271   -5.8299 C.ar      1 <0>         0.2610
     29 C22         2.8781   -2.2458   -4.7138 C.ar      1 <0>        -0.1939
     30 C23         4.2288   -1.9751   -4.6202 C.ar      1 <0>        -0.0794
     31 C24         4.8701   -1.2879   -5.6348 C.ar      1 <0>        -0.1912
     32 C25         4.1618   -0.8697   -6.7468 C.ar      1 <0>        -0.0819
     33 C26         2.8121   -1.1417   -6.8502 C.ar      1 <0>        -0.1729
     34 H2          1.0048    1.8381    0.0023 H         1 <0>         0.0452
     35 H3         -0.5450    1.8219   -0.8730 H         1 <0>         0.0685
     36 H4         -0.5280    1.8123    0.9069 H         1 <0>         0.0626
     37 H5         -0.9979   -0.9406    1.5900 H         1 <0>         0.0448
     38 H6          0.5496   -1.6879    1.1262 H         1 <0>         0.0675
     39 H7          0.5371   -0.1514    2.0246 H         1 <0>         0.0621
     40 H8          0.0255   -2.6317   -0.2895 H         1 <0>         0.1193
     41 H9          0.0205   -3.8457   -2.4303 H         1 <0>         0.1197
     42 H10        -0.0293   -0.1404   -4.5428 H         1 <0>         0.1187
     43 H11        -0.0356    1.0834   -2.4076 H         1 <0>         0.1184
     44 H12        -1.7520   -3.8570   -5.7024 H         1 <0>         0.0952
     45 H13        -2.1233   -2.3025   -4.8916 H         1 <0>         0.0980
     46 H14        -6.3480   -2.4746   -7.3949 H         1 <0>         0.1354
     47 H15        -7.9780   -1.9580   -9.1425 H         1 <0>         0.1233
     48 H16        -7.2312   -1.1792  -11.3508 H         1 <0>         0.1273
     49 H17        -4.8381   -0.9119  -11.8363 H         1 <0>         0.1330
     50 H18         2.3778   -2.7818   -3.9208 H         1 <0>         0.1171
     51 H19         4.7851   -2.3001   -3.7535 H         1 <0>         0.1127
     52 H20         5.9265   -1.0770   -5.5585 H         1 <0>         0.1096
     53 H21         4.6659   -0.3330   -7.5368 H         1 <0>         0.1146
     54 H22         2.2606   -0.8187   -7.7208 H         1 <0>         0.1297
@<TRIPOS>BOND
     1    1    2 1
     2    1   34 1
     3    1   35 1
     4    1   36 1
     5    2    3 1
     6    2    4 1
     7    3   37 1
     8    3   38 1
     9    3   39 1
    10    4    9 ar
    11    4    5 ar
    12    5    6 ar
    13    5   40 1
    14    6    7 ar
    15    6   41 1
    16    7    8 ar
    17    7   10 1
    18    8    9 ar
    19    8   42 1
    20    9   43 1
    21   10   11 1
    22   10   27 1
    23   10   12 1
    24   12   13 1
    25   12   44 1
    26   12   45 1
    27   13   14 1
    28   13   26 2
    29   14   24 1
    30   14   15 2
    31   15   16 1
    32   15   17 1
    33   17   22 ar
    34   17   18 ar
    35   18   19 ar
    36   18   46 1
    37   19   20 ar
    38   19   47 1
    39   20   21 ar
    40   20   48 1
    41   21   22 ar
    42   21   49 1
    43   22   23 1
    44   23   24 1
    45   24   25 2
    46   26   27 1
    47   27   28 1
    48   28   33 ar
    49   28   29 ar
    50   29   30 ar
    51   29   50 1
    52   30   31 ar
    53   30   51 1
    54   31   32 ar
    55   31   52 1
    56   32   33 ar
    57   32   53 1
    58   33   54 1
@<TRIPOS>MOLECULE
ZINC32926312
   33    35     0     0     0
SMALL
USER_CHARGES
N-[2-(4-bromopyrazol-1-yl)phenyl]-2-chloro-benzenesulfonamide
@<TRIPOS>ATOM
      1 C1         -0.6115    5.6063   -1.1973 C.ar      1 <0>        -0.0702
      2 C2         -1.8779    5.9956   -1.5940 C.ar      1 <0>        -0.1926
      3 C3         -2.8405    5.0454   -1.8777 C.ar      1 <0>        -0.0919
      4 C4         -2.5364    3.6967   -1.7704 C.ar      1 <0>         0.0687
      5 C5         -1.2613    3.3038   -1.3649 C.ar      1 <0>         0.2692
      6 C6         -0.3010    4.2648   -1.0821 C.ar      1 <0>        -0.2380
      7 N1         -0.9497    1.9461   -1.2491 N.2       1 <0>        -0.9852
      8 S1          0.0745    1.4305   -0.0543 S.o2      1 <0>         2.5744
      9 O1         -0.3473    2.0663    1.1445 O.2       1 <0>        -1.0311
     10 O2          0.1629    0.0176   -0.1769 O.2       1 <0>        -0.9744
     11 C7          1.6736    2.0694   -0.4274 C.ar      1 <0>        -0.6571
     12 C8          2.2781    2.9660    0.4338 C.ar      1 <0>        -0.0287
     13 C9          3.5343    3.4639    0.1434 C.ar      1 <0>        -0.1447
     14 C10         4.1831    3.0731   -1.0133 C.ar      1 <0>        -0.0788
     15 C11         3.5776    2.1809   -1.8776 C.ar      1 <0>        -0.1390
     16 C12         2.3220    1.6784   -1.5851 C.ar      1 <0>         0.0529
     17 Cl1         1.5605    0.5580   -2.6707 Cl        1 <0>        -0.0363
     18 N2         -3.5102    2.7303   -2.0639 N.pl3     1 <0>        -0.2686
     19 C13        -4.7853    2.9747   -2.4618 C.2       1 <0>         0.0638
     20 C14        -5.3941    1.7789   -2.6437 C.2       1 <0>        -0.2404
     21 C15        -4.4696    0.7736   -2.3398 C.2       1 <0>         0.0325
     22 N3         -3.3424    1.3413   -1.9928 N.2       1 <0>        -0.1913
     23 Br1        -7.1810    1.5144   -3.2031 Br        1 <0>        -0.0433
     24 H1          0.1369    6.3530   -0.9765 H         1 <0>         0.1096
     25 H2         -2.1153    7.0455   -1.6828 H         1 <0>         0.1148
     26 H3         -3.8284    5.3532   -2.1872 H         1 <0>         0.1151
     27 H4          0.6890    3.9642   -0.7724 H         1 <0>         0.1205
     28 H5          1.7700    3.2748    1.3355 H         1 <0>         0.1425
     29 H6          4.0076    4.1618    0.8183 H         1 <0>         0.1284
     30 H7          5.1631    3.4654   -1.2415 H         1 <0>         0.1293
     31 H8          4.0842    1.8762   -2.7815 H         1 <0>         0.1321
     32 H9         -5.2322    3.9468   -2.6090 H         1 <0>         0.1744
     33 H10        -4.6548   -0.2895   -2.3834 H         1 <0>         0.1831
@<TRIPOS>BOND
     1    1    6 ar
     2    1    2 ar
     3    1   24 1
     4    2    3 ar
     5    2   25 1
     6    3    4 ar
     7    3   26 1
     8    4    5 ar
     9    4   18 1
    10    5    6 ar
    11    5    7 1
    12    6   27 1
    13    7    8 1
    14    8    9 2
    15    8   10 2
    16    8   11 1
    17   11   16 ar
    18   11   12 ar
    19   12   13 ar
    20   12   28 1
    21   13   14 ar
    22   13   29 1
    23   14   15 ar
    24   14   30 1
    25   15   16 ar
    26   15   31 1
    27   16   17 1
    28   18   22 1
    29   18   19 1
    30   19   20 2
    31   19   32 1
    32   20   21 1
    33   20   23 1
    34   21   22 2
    35   21   33 1
@<TRIPOS>MOLECULE
ZINC44605850
   38    41     0     0     0
SMALL
USER_CHARGES

@<TRIPOS>ATOM
      1 C1         -0.0163    1.3803    0.0111 C.ar      1 <0>        -0.1331
      2 C2          0.2368    0.3963    0.9507 C.ar      1 <0>        -0.1310
      3 C3          1.4398   -0.2780    0.9409 C.ar      1 <0>        -0.0566
      4 C4          2.4042    0.0344   -0.0208 C.ar      1 <0>         0.0332
      5 C5          2.1415    1.0291   -0.9663 C.ar      1 <0>        -0.1140
      6 C6          0.9340    1.6950   -0.9443 C.ar      1 <0>        -0.1326
      7 C7          3.6936   -0.6821   -0.0374 C.2       1 <0>        -0.0199
      8 C8          3.6918   -2.0533    0.0545 C.2       1 <0>         0.1260
      9 C9          4.9283   -2.7522    0.0388 C.2       1 <0>         0.3729
     10 O1          4.9700   -3.9690    0.1177 O.2       1 <0>        -0.4597
     11 C10         6.1598   -1.9491   -0.0773 C.ar      1 <0>        -0.2310
     12 C11         7.4171   -2.5532   -0.1009 C.ar      1 <0>        -0.0239
     13 C12         8.5454   -1.7712   -0.2107 C.ar      1 <0>        -0.1783
     14 C13         8.4344   -0.3907   -0.2970 C.ar      1 <0>        -0.0594
     15 C14         7.1983    0.2185   -0.2748 C.ar      1 <0>        -0.1630
     16 C15         6.0463   -0.5522   -0.1650 C.ar      1 <0>         0.1714
     17 O2          4.8290    0.0282   -0.1475 O.3       1 <0>        -0.2103
     18 N1          2.4837   -2.7542    0.1629 N.2       1 <0>        -1.0584
     19 S1          2.4921   -4.4065    0.2731 S.o2      1 <0>         2.6532
     20 O3          2.9810   -4.8939   -0.9689 O.2       1 <0>        -1.0061
     21 O4          3.1074   -4.7277    1.5130 O.2       1 <0>        -1.0074
     22 C16         0.8136   -4.9290    0.3936 C.2       1 <0>        -0.6679
     23 C17        -0.0508   -5.2575   -0.5969 C.2       1 <0>        -0.0413
     24 C18        -1.3361   -5.6442   -0.2647 C.2       1 <0>        -0.1590
     25 C19        -1.6931   -5.6829    1.0435 C.2       1 <0>        -0.1182
     26 S2         -0.1864   -5.1704    1.8526 S.3       1 <0>         0.1954
     27 Cl1        -3.2172   -6.1233    1.7483 Cl        1 <0>         0.0112
     28 H1         -0.9619    1.9020    0.0208 H         1 <0>         0.1102
     29 H2         -0.5093    0.1561    1.6936 H         1 <0>         0.1148
     30 H3          1.6362   -1.0455    1.6750 H         1 <0>         0.1316
     31 H4          2.8824    1.2760   -1.7123 H         1 <0>         0.1163
     32 H5          0.7294    2.4638   -1.6748 H         1 <0>         0.1125
     33 H6          7.5050   -3.6275   -0.0331 H         1 <0>         0.1347
     34 H7          9.5209   -2.2343   -0.2294 H         1 <0>         0.1262
     35 H8          9.3260    0.2128   -0.3821 H         1 <0>         0.1303
     36 H9          7.1246    1.2938   -0.3423 H         1 <0>         0.1360
     37 H10         0.2595   -5.2176   -1.6306 H         1 <0>         0.1510
     38 H11        -2.0449   -5.9108   -1.0347 H         1 <0>         0.1443
@<TRIPOS>BOND
     1    1    6 ar
     2    1    2 ar
     3    1   28 1
     4    2    3 ar
     5    2   29 1
     6    3    4 ar
     7    3   30 1
     8    4    5 ar
     9    4    7 1
    10    5    6 ar
    11    5   31 1
    12    6   32 1
    13    7   17 1
    14    7    8 2
    15    8    9 1
    16    8   18 1
    17    9   10 2
    18    9   11 1
    19   11   16 ar
    20   11   12 ar
    21   12   13 ar
    22   12   33 1
    23   13   14 ar
    24   13   34 1
    25   14   15 ar
    26   14   35 1
    27   15   16 ar
    28   15   36 1
    29   16   17 1
    30   18   19 1
    31   19   20 2
    32   19   21 2
    33   19   22 1
    34   22   26 1
    35   22   23 2
    36   23   24 1
    37   23   37 1
    38   24   25 2
    39   24   38 1
    40   25   26 1
    41   25   27 1
@<TRIPOS>MOLECULE
ZINC39774552
   50    53     0     0     0
SMALL
USER_CHARGES

@<TRIPOS>ATOM
      1 C1          0.8230   -0.6298   -0.9431 C.3       1 <0>        -0.1294
      2 C2         -0.0041    0.1405    0.0881 C.3       1 <0>        -0.1241
      3 C3         -1.4611   -0.3218    0.0214 C.3       1 <0>         0.2095
      4 H1         -2.0415    0.1789    0.7963 H         1 <0>         0.0808
      5 C4         -1.5315   -1.8360    0.2213 C.2       1 <0>        -0.1519
      6 C5         -2.2387   -2.6004   -0.6024 C.2       1 <0>        -0.0869
      7 C6         -3.0523   -2.1548   -1.7853 C.3       1 <0>        -0.0686
      8 C7         -3.2886   -0.6422   -1.6914 C.3       1 <0>         0.1117
      9 N1         -2.0209   -0.0064   -1.2983 N.am      1 <0>        -0.6123
     10 C8         -1.3884    0.8444   -2.1305 C.2       1 <0>         0.5083
     11 O1         -0.3040    1.2953   -1.8275 O.2       1 <0>        -0.4853
     12 C9         -2.0285    1.2354   -3.4376 C.3       1 <0>         0.0982
     13 N2         -1.1487    2.1620   -4.1543 N.pl3     1 <0>        -0.4739
     14 C10        -1.1707    3.5368   -4.1032 C.2       1 <0>         0.1513
     15 N3         -0.2154    3.9670   -4.8940 N.2       1 <0>        -0.2710
     16 N4          0.3940    2.9699   -5.4286 N.2       1 <0>        -0.3408
     17 C11        -0.1319    1.8412   -5.0076 C.2       1 <0>         0.3909
     18 S1          0.3774    0.2169   -5.4627 S.3       1 <0>        -0.7970
     19 C12        -2.0957    4.3718   -3.3078 C.ar      1 <0>         0.0206
     20 C13        -2.7775    3.8222   -2.2210 C.ar      1 <0>        -0.1222
     21 C14        -3.6393    4.6069   -1.4829 C.ar      1 <0>        -0.1138
     22 C15        -3.8288    5.9358   -1.8182 C.ar      1 <0>        -0.0965
     23 C16        -3.1560    6.4868   -2.8943 C.ar      1 <0>        -0.1149
     24 C17        -2.2866    5.7147   -3.6369 C.ar      1 <0>        -0.0860
     25 C18        -4.7725    6.7867   -1.0080 C.3       1 <0>        -0.1105
     26 S2         -2.0352   -4.2824   -0.0620 S.3       1 <0>        -0.2002
     27 C19        -0.6294   -4.0244    1.0996 C.3       1 <0>        -0.0741
     28 C20        -0.8204   -2.5116    1.3660 C.3       1 <0>        -0.0912
     29 H2          1.8202   -0.1943   -1.0076 H         1 <0>         0.0476
     30 H3          0.9014   -1.6737   -0.6396 H         1 <0>         0.0307
     31 H4          0.3368   -0.5700   -1.9168 H         1 <0>         0.0693
     32 H5          0.3918   -0.0485    1.0859 H         1 <0>         0.0504
     33 H6          0.0487    1.2077   -0.1276 H         1 <0>         0.1084
     34 H7         -2.5135   -2.3830   -2.7049 H         1 <0>         0.0934
     35 H8         -4.0107   -2.6741   -1.7848 H         1 <0>         0.0917
     36 H9         -3.6083   -0.2584   -2.6602 H         1 <0>         0.0941
     37 H10        -4.0523   -0.4344   -0.9419 H         1 <0>         0.0808
     38 H11        -2.1892    0.3443   -4.0443 H         1 <0>         0.1239
     39 H12        -2.9853    1.7200   -3.2430 H         1 <0>         0.1108
     40 H13        -2.6310    2.7848   -1.9587 H         1 <0>         0.1168
     41 H14        -4.1675    4.1828   -0.6417 H         1 <0>         0.1205
     42 H15        -3.3086    7.5247   -3.1510 H         1 <0>         0.1240
     43 H16        -1.7586    6.1472   -4.4739 H         1 <0>         0.1339
     44 H17        -4.2260    7.2589   -0.1916 H         1 <0>         0.0674
     45 H18        -5.2077    7.5555   -1.6465 H         1 <0>         0.0643
     46 H19        -5.5664    6.1611   -0.5999 H         1 <0>         0.0631
     47 H20        -0.7507   -4.6098    2.0111 H         1 <0>         0.1122
     48 H21         0.3283   -4.2287    0.6208 H         1 <0>         0.0974
     49 H22         0.1563   -2.0474    1.5027 H         1 <0>         0.0905
     50 H23        -1.4056   -2.3809    2.2763 H         1 <0>         0.0881
@<TRIPOS>BOND
     1    1    2 1
     2    1   29 1
     3    1   30 1
     4    1   31 1
     5    2    3 1
     6    2   32 1
     7    2   33 1
     8    3    4 1
     9    3    9 1
    10    3    5 1
    11    5   28 1
    12    5    6 2
    13    6    7 1
    14    6   26 1
    15    7    8 1
    16    7   34 1
    17    7   35 1
    18    8    9 1
    19    8   36 1
    20    8   37 1
    21    9   10 am
    22   10   11 2
    23   10   12 1
    24   12   38 1
    25   12   39 1
    26   12   13 1
    27   13   17 1
    28   13   14 1
    29   14   19 1
    30   14   15 2
    31   15   16 1
    32   16   17 2
    33   17   18 1
    34   19   24 ar
    35   19   20 ar
    36   20   21 ar
    37   20   40 1
    38   21   22 ar
    39   21   41 1
    40   22   23 ar
    41   22   25 1
    42   23   24 ar
    43   23   42 1
    44   24   43 1
    45   25   44 1
    46   25   45 1
    47   25   46 1
    48   26   27 1
    49   27   28 1
    50   27   47 1
    51   27   48 1
    52   28   49 1
    53   28   50 1
@<TRIPOS>MOLECULE
ZINC64557751
   50    53     0     0     0
SMALL
USER_CHARGES

@<TRIPOS>ATOM
      1 C1         -0.0184    1.5028    0.0103 C.3       1 <0>        -0.1091
      2 C2          0.0021   -0.0041    0.0020 C.ar      1 <0>        -0.0941
      3 C3          0.0057   -0.6887   -1.1989 C.ar      1 <0>        -0.1150
      4 C4          0.0245   -2.0709   -1.2065 C.ar      1 <0>        -0.0960
      5 C5          0.0400   -2.7685   -0.0132 C.ar      1 <0>        -0.0774
      6 C6          0.0373   -2.0839    1.1877 C.ar      1 <0>        -0.0876
      7 C7          0.0229   -0.7016    1.1953 C.ar      1 <0>        -0.1194
      8 C8          0.0595   -4.2753   -0.0215 C.3       1 <0>         0.2774
      9 H1         -0.3027   -4.6500   -0.9788 H         1 <0>         0.0777
     10 C9          1.4598   -4.7795    0.2389 C.2       1 <0>        -0.9503
     11 C10         1.4117   -5.5029    1.3576 C.2       1 <0>         0.3250
     12 C11         0.0369   -5.5179    1.8783 C.2       1 <0>         0.5110
     13 O1         -0.3208   -6.0951    2.8871 O.2       1 <0>        -0.5062
     14 N1         -0.7687   -4.7982    1.0727 N.am      1 <0>        -0.5470
     15 C12        -2.1400   -4.5866    1.2463 C.ar      1 <0>         0.1887
     16 C13        -2.8479   -3.8217    0.3282 C.ar      1 <0>        -0.1529
     17 C14        -4.2023   -3.6150    0.5024 C.ar      1 <0>        -0.0915
     18 C15        -4.8536   -4.1687    1.5894 C.ar      1 <0>        -0.1282
     19 C16        -4.1517   -4.9308    2.5053 C.ar      1 <0>        -0.0911
     20 C17        -2.7982   -5.1457    2.3342 C.ar      1 <0>        -0.1597
     21 C18        -6.3314   -3.9407    1.7765 C.3       1 <0>        -0.1050
     22 O2          2.4730   -6.1314    1.9301 O.3       1 <0>        -0.6006
     23 S1          2.8858   -4.4699   -0.7486 S.o2      1 <0>         2.6166
     24 O3          2.9181   -3.0696   -0.9877 O.2       1 <0>        -0.9595
     25 O4          3.9636   -5.1629   -0.1342 O.2       1 <0>        -0.9404
     26 C19         2.6159   -5.2412   -2.3097 C.ar      1 <0>        -0.6489
     27 C20         3.0074   -6.5517   -2.5100 C.ar      1 <0>        -0.0204
     28 C21         2.7956   -7.1568   -3.7347 C.ar      1 <0>        -0.1443
     29 C22         2.1919   -6.4515   -4.7590 C.ar      1 <0>        -0.0799
     30 C23         1.7996   -5.1413   -4.5583 C.ar      1 <0>        -0.1467
     31 C24         2.0075   -4.5376   -3.3323 C.ar      1 <0>        -0.0302
     32 H2          1.0042    1.8801    0.0026 H         1 <0>         0.0666
     33 H3         -0.5455    1.8639   -0.8728 H         1 <0>         0.0611
     34 H4         -0.5286    1.8543    0.9071 H         1 <0>         0.0604
     35 H5         -0.0064   -0.1436   -2.1312 H         1 <0>         0.1168
     36 H6          0.0266   -2.6057   -2.1448 H         1 <0>         0.1158
     37 H7          0.0491   -2.6289    2.1200 H         1 <0>         0.1111
     38 H8          0.0245   -0.1667    2.1335 H         1 <0>         0.1148
     39 H9         -2.3398   -3.3887   -0.5207 H         1 <0>         0.1264
     40 H10        -4.7533   -3.0201   -0.2109 H         1 <0>         0.1204
     41 H11        -4.6632   -5.3615    3.3534 H         1 <0>         0.1208
     42 H12        -2.2514   -5.7443    3.0476 H         1 <0>         0.1502
     43 H13        -6.8877   -4.7304    1.2715 H         1 <0>         0.0632
     44 H14        -6.5690   -3.9520    2.8402 H         1 <0>         0.0609
     45 H15        -6.6065   -2.9747    1.3531 H         1 <0>         0.0608
     46 H16         3.4790   -7.1028   -1.7098 H         1 <0>         0.1410
     47 H17         3.1021   -8.1805   -3.8915 H         1 <0>         0.1273
     48 H18         2.0271   -6.9240   -5.7160 H         1 <0>         0.1235
     49 H19         1.3283   -4.5901   -5.3586 H         1 <0>         0.1263
     50 H20         1.6977   -3.5151   -3.1743 H         1 <0>         0.1374
@<TRIPOS>BOND
     1    1    2 1
     2    1   32 1
     3    1   33 1
     4    1   34 1
     5    2    7 ar
     6    2    3 ar
     7    3    4 ar
     8    3   35 1
     9    4    5 ar
    10    4   36 1
    11    5    6 ar
    12    5    8 1
    13    6    7 ar
    14    6   37 1
    15    7   38 1
    16    8    9 1
    17    8   14 1
    18    8   10 1
    19   10   11 2
    20   10   23 1
    21   11   12 1
    22   11   22 1
    23   12   13 2
    24   12   14 am
    25   14   15 1
    26   15   20 ar
    27   15   16 ar
    28   16   17 ar
    29   16   39 1
    30   17   18 ar
    31   17   40 1
    32   18   19 ar
    33   18   21 1
    34   19   20 ar
    35   19   41 1
    36   20   42 1
    37   21   43 1
    38   21   44 1
    39   21   45 1
    40   23   24 2
    41   23   25 2
    42   23   26 1
    43   26   31 ar
    44   26   27 ar
    45   27   28 ar
    46   27   46 1
    47   28   29 ar
    48   28   47 1
    49   29   30 ar
    50   29   48 1
    51   30   31 ar
    52   30   49 1
    53   31   50 1
@<TRIPOS>MOLECULE
ZINC65137873
   44    46     0     0     0
SMALL
USER_CHARGES

@<TRIPOS>ATOM
      1 C1         -2.1598   -5.9300   -3.0800 C.3       1 <0>        -0.1045
      2 C2         -1.4224   -5.0556   -2.0989 C.ar      1 <0>        -0.0555
      3 C3         -0.8357   -3.8788   -2.5277 C.ar      1 <0>        -0.2264
      4 C4         -0.1577   -3.0739   -1.6310 C.ar      1 <0>        -0.0656
      5 C5         -0.0647   -3.4425   -0.3031 C.ar      1 <0>        -0.2690
      6 C6         -0.6531   -4.6234    0.1310 C.ar      1 <0>         0.2805
      7 C7         -1.3380   -5.4273   -0.7718 C.ar      1 <0>        -0.1829
      8 N1         -0.5610   -4.9992    1.4730 N.2       1 <0>        -1.0949
      9 S1          0.2505   -4.0365    2.5486 S.o2      1 <0>         2.6110
     10 O1          1.6180   -4.0598    2.1631 O.2       1 <0>        -1.0270
     11 O2         -0.4912   -2.8289    2.6526 O.2       1 <0>        -1.0271
     12 C8          0.1578   -4.8216    4.1233 C.2       1 <0>        -0.6595
     13 C9          1.1726   -5.5386    4.5652 C.2       1 <0>         0.0360
     14 S2          0.6867   -6.1323    6.1754 S.3       1 <0>        -0.1894
     15 C10        -0.7748   -5.0420    6.4400 C.3       1 <0>        -0.0078
     16 H1         -1.6039   -5.5874    6.8910 H         1 <0>         0.1334
     17 C11        -1.0689   -4.6714    4.9643 C.3       1 <0>        -0.0546
     18 C12        -0.4101   -3.8048    7.2629 C.3       1 <0>        -0.0271
     19 H2         -1.2940   -3.1960    7.4534 H         1 <0>         0.1531
     20 C13         0.2577   -4.2046    8.5667 C.2       1 <0>        -0.1220
     21 C14         1.4723   -3.6567    8.4867 C.2       1 <0>        -0.0396
     22 N2          1.6217   -2.9884    7.3217 N.2       1 <0>        -0.1595
     23 N3          0.6299   -3.0145    6.5823 N.2       1 <0>        -0.1400
     24 C15         2.5330   -3.7684    9.5513 C.3       1 <0>        -0.0810
     25 C16        -0.3173   -5.0282    9.6901 C.3       1 <0>        -0.0891
     26 C17         2.4753   -5.8027    3.8550 C.3       1 <0>        -0.1017
     27 H3         -3.2071   -5.6301   -3.1183 H         1 <0>         0.0595
     28 H4         -1.7146   -5.8220   -4.0691 H         1 <0>         0.0553
     29 H5         -2.0912   -6.9704   -2.7624 H         1 <0>         0.0579
     30 H6         -0.9069   -3.5882   -3.5655 H         1 <0>         0.0995
     31 H7          0.2999   -2.1559   -1.9693 H         1 <0>         0.1005
     32 H8          0.4653   -2.8135    0.3967 H         1 <0>         0.0951
     33 H9         -1.8002   -6.3441   -0.4367 H         1 <0>         0.1095
     34 H10        -1.4147   -3.6390    4.9137 H         1 <0>         0.1025
     35 H11        -1.8494   -5.3290    4.5814 H         1 <0>         0.1003
     36 H12         3.1452   -4.6504    9.3631 H         1 <0>         0.0771
     37 H13         3.1622   -2.8785    9.5320 H         1 <0>         0.0750
     38 H14         2.0589   -3.8570   10.5288 H         1 <0>         0.0715
     39 H15        -0.0998   -6.0820    9.5162 H         1 <0>         0.0830
     40 H16         0.1287   -4.7162   10.6345 H         1 <0>         0.0775
     41 H17        -1.3966   -4.8821    9.7321 H         1 <0>         0.0736
     42 H18         3.1632   -4.9774    4.0391 H         1 <0>         0.0926
     43 H19         2.9114   -6.7293    4.2284 H         1 <0>         0.0665
     44 H20         2.2937   -5.8923    2.7840 H         1 <0>         0.1132
@<TRIPOS>BOND
     1    1    2 1
     2    1   27 1
     3    1   28 1
     4    1   29 1
     5    2    7 ar
     6    2    3 ar
     7    3    4 ar
     8    3   30 1
     9    4    5 ar
    10    4   31 1
    11    5    6 ar
    12    5   32 1
    13    6    7 ar
    14    6    8 1
    15    7   33 1
    16    8    9 1
    17    9   10 2
    18    9   11 2
    19    9   12 1
    20   12   17 1
    21   12   13 2
    22   13   14 1
    23   13   26 1
    24   14   15 1
    25   15   16 1
    26   15   17 1
    27   15   18 1
    28   17   34 1
    29   17   35 1
    30   18   19 1
    31   18   23 1
    32   18   20 1
    33   20   21 2
    34   20   25 1
    35   21   22 1
    36   21   24 1
    37   22   23 2
    38   24   36 1
    39   24   37 1
    40   24   38 1
    41   25   39 1
    42   25   40 1
    43   25   41 1
    44   26   42 1
    45   26   43 1
    46   26   44 1
@<TRIPOS>MOLECULE
ZINC05373154
   44    46     0     0     0
SMALL
USER_CHARGES
4-methyl-3-[5-(2-methyl-3-phenyl-prop-2-enylidene)-4-oxo-thiazol-2-yl]amino-benzoic acid
@<TRIPOS>ATOM
      1 C1         -2.2325    3.6536   -2.3640 C.3       1 <0>        -0.1078
      2 C2         -0.9505    2.9172   -2.0721 C.ar      1 <0>        -0.1180
      3 C3          0.2618    3.5713   -2.1898 C.ar      1 <0>        -0.1198
      4 C4          1.4398    2.9042   -1.9239 C.ar      1 <0>        -0.0824
      5 C5          1.4103    1.5631   -1.5346 C.ar      1 <0>        -0.0944
      6 C6          0.1872    0.9029   -1.4162 C.ar      1 <0>        -0.1078
      7 C7         -0.9906    1.5810   -1.6914 C.ar      1 <0>         0.1009
      8 N1         -2.2190    0.9223   -1.5803 N.pl3     1 <0>        -0.5660
      9 C8         -2.2539   -0.4288   -1.3485 C.2       1 <0>         0.4570
     10 N2         -1.2412   -1.2498   -1.1207 N.2       1 <0>        -0.6308
     11 C9         -1.4104   -2.5371   -0.9108 C.2       1 <0>         0.5360
     12 O1         -0.4678   -3.2847   -0.7020 O.2       1 <0>        -0.4433
     13 C10        -2.8053   -3.0303   -0.9421 C.2       1 <0>        -0.2142
     14 C11        -3.2900   -4.2928   -0.7630 C.2       1 <0>         0.0311
     15 C12        -4.6802   -4.5104   -0.6931 C.2       1 <0>        -0.1082
     16 C13        -5.1660   -5.7733   -0.6376 C.2       1 <0>        -0.0705
     17 C14        -6.6161   -6.0064   -0.7006 C.ar      1 <0>        -0.0650
     18 C15        -7.1839   -7.0927   -0.0253 C.ar      1 <0>        -0.1018
     19 C16        -8.5453   -7.3015   -0.0855 C.ar      1 <0>        -0.1235
     20 C17        -9.3486   -6.4467   -0.8204 C.ar      1 <0>        -0.1149
     21 C18        -8.7942   -5.3727   -1.4952 C.ar      1 <0>        -0.1241
     22 C19        -7.4353   -5.1467   -1.4409 C.ar      1 <0>        -0.1089
     23 C20        -5.6266   -3.3377   -0.6801 C.3       1 <0>        -0.1396
     24 S1         -3.6776   -1.5046   -1.2734 S.3       1 <0>        -0.0399
     25 C21         2.6703    0.8461   -1.2497 C.2       1 <0>         0.4862
     26 O2          2.6423   -0.3203   -0.9117 O.co2     1 <0>        -0.6141
     27 H1         -2.4823    3.5440   -3.4193 H         1 <0>         0.0691
     28 H2         -3.0363    3.2392   -1.7554 H         1 <0>         0.0526
     29 H3         -2.1063    4.7104   -2.1284 H         1 <0>         0.0722
     30 H4          0.2867    4.6083   -2.4907 H         1 <0>         0.1237
     31 H5          2.3847    3.4188   -2.0171 H         1 <0>         0.1340
     32 H6          0.1579   -0.1340   -1.1156 H         1 <0>         0.1933
     33 H7         -3.0464    1.4210   -1.6673 H         1 <0>         0.4282
     34 H8         -2.6080   -5.1256   -0.6748 H         1 <0>         0.1551
     35 H9         -4.4881   -6.6091   -0.5470 H         1 <0>         0.1324
     36 H10        -6.5579   -7.7634    0.5445 H         1 <0>         0.1259
     37 H11        -8.9857   -8.1370    0.4384 H         1 <0>         0.1233
     38 H12       -10.4138   -6.6184   -0.8673 H         1 <0>         0.1213
     39 H13        -9.4279   -4.7102   -2.0661 H         1 <0>         0.1240
     40 H14        -7.0043   -4.3083   -1.9679 H         1 <0>         0.1352
     41 H15        -5.8258   -3.0203   -1.7037 H         1 <0>         0.0808
     42 H16        -6.5614   -3.6306   -0.2021 H         1 <0>         0.0874
     43 H17        -5.1772   -2.5142   -0.1252 H         1 <0>         0.0827
     44 O3          3.8502    1.4858   -1.3647 O.co2     1 <0>        -0.7575
@<TRIPOS>BOND
     1    1    2 1
     2    1   27 1
     3    1   28 1
     4    1   29 1
     5    2    7 ar
     6    2    3 ar
     7    3    4 ar
     8    3   30 1
     9    4    5 ar
    10    4   31 1
    11    5    6 ar
    12    5   25 1
    13    6    7 ar
    14    6   32 1
    15    7    8 1
    16    8    9 1
    17    8   33 1
    18    9   24 1
    19    9   10 2
    20   10   11 1
    21   11   12 2
    22   11   13 1
    23   13   14 2
    24   13   24 1
    25   14   15 1
    26   14   34 1
    27   15   16 2
    28   15   23 1
    29   16   17 1
    30   16   35 1
    31   17   22 ar
    32   17   18 ar
    33   18   19 ar
    34   18   36 1
    35   19   20 ar
    36   19   37 1
    37   20   21 ar
    38   20   38 1
    39   21   22 ar
    40   21   39 1
    41   22   40 1
    42   23   41 1
    43   23   42 1
    44   23   43 1
    45   25   26 2
    46   25   44 1
@<TRIPOS>MOLECULE
ZINC13410971
   46    48     0     0     0
SMALL
USER_CHARGES
4-[(E)-3-[[2-(4-methylphenoxy)phenyl]amino]-3-oxo-prop-1-enyl]benzoic acid
@<TRIPOS>ATOM
      1 C1         -6.3463   15.8184   -0.0347 C.3       1 <0>        -0.1159
      2 C2         -6.3302   14.3116   -0.0532 C.ar      1 <0>        -0.0885
      3 C3         -6.8134   13.6028    1.0312 C.ar      1 <0>        -0.1055
      4 C4         -6.8002   12.2216    1.0166 C.ar      1 <0>        -0.1345
      5 C5         -6.3013   11.5454   -0.0877 C.ar      1 <0>         0.0837
      6 C6         -5.8117   12.2592   -1.1723 C.ar      1 <0>        -0.1157
      7 C7         -5.8325   13.6403   -1.1549 C.ar      1 <0>        -0.1043
      8 O1         -6.2872   10.1868   -0.1046 O.3       1 <0>        -0.2568
      9 C8         -7.4807    9.5365   -0.1359 C.ar      1 <0>         0.0925
     10 C9         -8.6588   10.2530   -0.2732 C.ar      1 <0>        -0.1777
     11 C10        -9.8716    9.5902   -0.3049 C.ar      1 <0>        -0.1006
     12 C11        -9.9137    8.2119   -0.2003 C.ar      1 <0>        -0.1313
     13 C12        -8.7431    7.4891   -0.0693 C.ar      1 <0>        -0.0885
     14 C13        -7.5224    8.1475   -0.0305 C.ar      1 <0>         0.1314
     15 N1         -6.3357    7.4182    0.1084 N.am      1 <0>        -0.6645
     16 C14        -6.2239    6.1992   -0.4553 C.2       1 <0>         0.5556
     17 O2         -7.1782    5.7018   -1.0236 O.2       1 <0>        -0.5340
     18 C15        -4.9530    5.4723   -0.3840 C.2       1 <0>        -0.2460
     19 C16        -4.8413    4.2535   -0.9477 C.2       1 <0>         0.0194
     20 C17        -3.5646    3.5234   -0.8761 C.ar      1 <0>        -0.1022
     21 C18        -3.4482    2.2580   -1.4611 C.ar      1 <0>        -0.1040
     22 C19        -2.2546    1.5761   -1.3933 C.ar      1 <0>        -0.0939
     23 C20        -1.1592    2.1473   -0.7403 C.ar      1 <0>        -0.0913
     24 C21        -1.2763    3.4087   -0.1507 C.ar      1 <0>        -0.0848
     25 C22        -2.4674    4.0945   -0.2225 C.ar      1 <0>        -0.1105
     26 C23         0.1217    1.4145   -0.6680 C.2       1 <0>         0.4855
     27 O3          0.2224    0.3158   -1.1761 O.co2     1 <0>        -0.6272
     28 H1         -5.4127   16.1865    0.3907 H         1 <0>         0.0730
     29 H2         -6.4545   16.1931   -1.0525 H         1 <0>         0.0681
     30 H3         -7.1834   16.1653    0.5711 H         1 <0>         0.0676
     31 H4         -7.2012   14.1296    1.8906 H         1 <0>         0.1289
     32 H5         -7.1781   11.6685    1.8638 H         1 <0>         0.1302
     33 H6         -5.4185   11.7353   -2.0310 H         1 <0>         0.1332
     34 H7         -5.4557   14.1962   -2.0006 H         1 <0>         0.1310
     35 H8         -8.6296   11.3295   -0.3552 H         1 <0>         0.1313
     36 H9        -10.7887   10.1503   -0.4120 H         1 <0>         0.1259
     37 H10       -10.8636    7.6986   -0.2259 H         1 <0>         0.1286
     38 H11        -8.7788    6.4125    0.0076 H         1 <0>         0.1499
     39 H12        -5.5937    7.7902    0.6105 H         1 <0>         0.4151
     40 H13        -4.1061    5.9137    0.1203 H         1 <0>         0.1325
     41 H14        -5.6882    3.8121   -1.4520 H         1 <0>         0.1329
     42 H15        -4.2948    1.8161   -1.9656 H         1 <0>         0.1230
     43 H16        -2.1646    0.5990   -1.8446 H         1 <0>         0.1317
     44 H17        -0.4305    3.8476    0.3576 H         1 <0>         0.1349
     45 H18        -2.5565    5.0712    0.2298 H         1 <0>         0.1221
     46 O4          1.1796    1.9673   -0.0433 O.co2     1 <0>        -0.7504
@<TRIPOS>BOND
     1    1    2 1
     2    1   28 1
     3    1   29 1
     4    1   30 1
     5    2    7 ar
     6    2    3 ar
     7    3    4 ar
     8    3   31 1
     9    4    5 ar
    10    4   32 1
    11    5    6 ar
    12    5    8 1
    13    6    7 ar
    14    6   33 1
    15    7   34 1
    16    8    9 1
    17    9   14 ar
    18    9   10 ar
    19   10   11 ar
    20   10   35 1
    21   11   12 ar
    22   11   36 1
    23   12   13 ar
    24   12   37 1
    25   13   14 ar
    26   13   38 1
    27   14   15 1
    28   15   16 am
    29   15   39 1
    30   16   17 2
    31   16   18 1
    32   18   19 2
    33   18   40 1
    34   19   20 1
    35   19   41 1
    36   20   25 ar
    37   20   21 ar
    38   21   22 ar
    39   21   42 1
    40   22   23 ar
    41   22   43 1
    42   23   24 ar
    43   23   26 1
    44   24   25 ar
    45   24   44 1
    46   25   45 1
    47   26   27 2
    48   26   46 1
@<TRIPOS>MOLECULE
ZINC04114594
   46    48     0     0     0
SMALL
USER_CHARGES
5-benzoyl-3-butyl-2-hydroxy-6-phenyl-1H-pyridin-4-one
@<TRIPOS>ATOM
      1 C1         -6.2119    7.7113    2.6703 C.3       1 <0>        -0.1490
      2 C2         -5.9507    7.1743    1.2617 C.3       1 <0>        -0.1242
      3 C3         -5.7453    5.6594    1.3232 C.3       1 <0>        -0.1043
      4 C4         -5.4841    5.1225   -0.0854 C.3       1 <0>        -0.0014
      5 C5         -5.2818    3.6304   -0.0248 C.2       1 <0>        -0.4283
      6 C6         -3.9911    3.0985    0.1674 C.2       1 <0>         0.4244
      7 O1         -3.0214    3.8320    0.2871 O.3       1 <0>        -0.5804
      8 C7         -3.8427    1.6354    0.2159 C.2       1 <0>        -0.3361
      9 C8         -4.9878    0.8499    0.0790 C.2       1 <0>         0.2338
     10 N1         -6.2012    1.4401   -0.0988 N.am      1 <0>        -0.6130
     11 H1         -7.1037    0.8205   -0.2067 H         1 <0>         0.4182
     12 C9         -6.3445    2.7918   -0.1493 C.2       1 <0>         0.4646
     13 O2         -7.5773    3.3155   -0.3278 O.2       1 <0>        -0.6983
     14 C10        -4.8832   -0.6209    0.1275 C.ar      1 <0>        -0.0621
     15 C11        -3.9314   -1.2831   -0.6524 C.ar      1 <0>        -0.0933
     16 C12        -3.8362   -2.6579   -0.5983 C.ar      1 <0>        -0.1176
     17 C13        -4.6874   -3.3822    0.2177 C.ar      1 <0>        -0.1131
     18 C14        -5.6360   -2.7336    0.9889 C.ar      1 <0>        -0.1207
     19 C15        -5.7393   -1.3589    0.9490 C.ar      1 <0>        -0.0988
     20 C16        -2.5256    1.0184    0.4094 C.2       1 <0>         0.4896
     21 O3         -1.7921    0.8381   -0.5447 O.2       1 <0>        -0.4604
     22 C17        -2.0895    0.6158    1.7638 C.ar      1 <0>        -0.1451
     23 C18        -0.8867   -0.0715    1.9377 C.ar      1 <0>        -0.0679
     24 C19        -0.4830   -0.4391    3.2045 C.ar      1 <0>        -0.1385
     25 C20        -1.2697   -0.1329    4.3008 C.ar      1 <0>        -0.0983
     26 C21        -2.4655    0.5434    4.1350 C.ar      1 <0>        -0.1358
     27 C22        -2.8808    0.9173    2.8738 C.ar      1 <0>        -0.0567
     28 H2         -6.3596    8.8004    2.6259 H         1 <0>         0.0444
     29 H3         -5.3501    7.4841    3.3150 H         1 <0>         0.0498
     30 H4         -7.1139    7.2355    3.0827 H         1 <0>         0.0499
     31 H5         -6.8125    7.4015    0.6170 H         1 <0>         0.0555
     32 H6         -5.0488    7.6501    0.8493 H         1 <0>         0.0547
     33 H7         -4.8835    5.4321    1.9679 H         1 <0>         0.0492
     34 H8         -6.6472    5.1835    1.7356 H         1 <0>         0.0525
     35 H9         -6.3459    5.3498   -0.7301 H         1 <0>         0.0507
     36 H10        -4.5822    5.5984   -0.4978 H         1 <0>         0.0439
     37 H11        -3.2692   -0.7194   -1.2928 H         1 <0>         0.1350
     38 H12        -3.0983   -3.1707   -1.1973 H         1 <0>         0.1249
     39 H13        -4.6109   -4.4589    0.2532 H         1 <0>         0.1217
     40 H14        -6.2973   -3.3053    1.6231 H         1 <0>         0.1244
     41 H15        -6.4798   -0.8540    1.5516 H         1 <0>         0.1267
     42 H16        -0.2716   -0.3107    1.0829 H         1 <0>         0.1295
     43 H17         0.4490   -0.9675    3.3408 H         1 <0>         0.1235
     44 H18        -0.9489   -0.4227    5.2905 H         1 <0>         0.1215
     45 H19        -3.0748    0.7794    4.9949 H         1 <0>         0.1245
     46 H20        -3.8141    1.4455    2.7457 H         1 <0>         0.1302
@<TRIPOS>BOND
     1    1    2 1
     2    1   28 1
     3    1   29 1
     4    1   30 1
     5    2    3 1
     6    2   31 1
     7    2   32 1
     8    3    4 1
     9    3   33 1
    10    3   34 1
    11    4    5 1
    12    4   35 1
    13    4   36 1
    14    5   12 1
    15    5    6 2
    16    6    7 1
    17    6    8 1
    18    8    9 2
    19    8   20 1
    20    9   10 1
    21    9   14 1
    22   10   11 1
    23   10   12 am
    24   12   13 2
    25   14   19 ar
    26   14   15 ar
    27   15   16 ar
    28   15   37 1
    29   16   17 ar
    30   16   38 1
    31   17   18 ar
    32   17   39 1
    33   18   19 ar
    34   18   40 1
    35   19   41 1
    36   20   21 2
    37   20   22 1
    38   22   27 ar
    39   22   23 ar
    40   23   24 ar
    41   23   42 1
    42   24   25 ar
    43   24   43 1
    44   25   26 ar
    45   25   44 1
    46   26   27 ar
    47   26   45 1
    48   27   46 1
@<TRIPOS>MOLECULE
ZINC38002982
   32    33     0     0     0
SMALL
USER_CHARGES

@<TRIPOS>ATOM
      1 C1         -0.0184    1.5028    0.0103 C.3       1 <0>        -0.0971
      2 C2          0.0021   -0.0041    0.0020 C.ar      1 <0>        -0.1693
      3 C3          0.0057   -0.6862   -1.2007 C.ar      1 <0>        -0.0955
      4 C4          0.0239   -2.0655   -1.2171 C.ar      1 <0>        -0.1316
      5 C5          0.0392   -2.7782   -0.0152 C.ar      1 <0>        -0.0940
      6 C6          0.0361   -2.0892    1.1990 C.ar      1 <0>        -0.1523
      7 C7          0.0230   -0.7029    1.2034 C.ar      1 <0>         0.1917
      8 N1          0.0255   -0.0082    2.4156 N.pl3     1 <0>        -0.7496
      9 C8          0.0475   -0.7446    3.6819 C.3       1 <0>         0.2307
     10 H1          0.6479   -1.6470    3.5670 H         1 <0>         0.1082
     11 C9         -1.3808   -1.1287    4.0734 C.3       1 <0>        -0.1651
     12 C10         0.6469    0.1239    4.7577 C.2       1 <0>        -0.1165
     13 C11         1.5052   -0.2167    5.7497 C.2       1 <0>        -0.1595
     14 C12         1.9284    0.7579    6.6344 C.2       1 <0>        -0.0993
     15 C13         1.4716    2.0259    6.4829 C.2       1 <0>        -0.1871
     16 S1          0.4165    1.8697    5.0512 S.3       1 <0>         0.0967
     17 Br1         1.8580    3.5622    7.5155 Br        1 <0>         0.0319
     18 C14         0.0582   -4.2536   -0.0294 C.2       1 <0>         0.5190
     19 O1          0.0606   -4.8549   -1.0942 O.co2     1 <0>        -0.6867
     20 O2          0.0717   -4.8751    1.0238 O.co2     1 <0>        -0.6888
     21 H2          1.0042    1.8801    0.0026 H         1 <0>         0.0582
     22 H3         -0.5455    1.8639   -0.8728 H         1 <0>         0.0612
     23 H4         -0.5286    1.8543    0.9071 H         1 <0>         0.0507
     24 H5         -0.0062   -0.1372   -2.1307 H         1 <0>         0.1127
     25 H6          0.0259   -2.5944   -2.1588 H         1 <0>         0.1225
     26 H7          0.0475   -2.6341    2.1314 H         1 <0>         0.1260
     27 H8          0.0126    0.9617    2.4188 H         1 <0>         0.3924
     28 H9         -1.9812   -0.2263    4.1883 H         1 <0>         0.0577
     29 H10        -1.8144   -1.7569    3.2952 H         1 <0>         0.0776
     30 H11        -1.3644   -1.6767    5.0155 H         1 <0>         0.0671
     31 H12         1.8532   -1.2343    5.8479 H         1 <0>         0.1462
     32 H13         2.6118    0.5131    7.4340 H         1 <0>         0.1417
@<TRIPOS>BOND
     1    1    2 1
     2    1   21 1
     3    1   22 1
     4    1   23 1
     5    2    7 ar
     6    2    3 ar
     7    3    4 ar
     8    3   24 1
     9    4    5 ar
    10    4   25 1
    11    5    6 ar
    12    5   18 1
    13    6    7 ar
    14    6   26 1
    15    7    8 1
    16    8    9 1
    17    8   27 1
    18    9   10 1
    19    9   11 1
    20    9   12 1
    21   11   28 1
    22   11   29 1
    23   11   30 1
    24   12   16 1
    25   12   13 2
    26   13   14 1
    27   13   31 1
    28   14   15 2
    29   14   32 1
    30   15   16 1
    31   15   17 1
    32   18   19 2
    33   18   20 1
@<TRIPOS>MOLECULE
ZINC19593454
   45    48     0     0     0
SMALL
USER_CHARGES

@<TRIPOS>ATOM
      1 C1          0.3701    0.4336   -1.1314 C.ar      1 <0>        -0.1349
      2 C2          1.4350    0.8719   -1.8961 C.ar      1 <0>        -0.1258
      3 C3          2.7021    0.3677   -1.6699 C.ar      1 <0>        -0.1192
      4 C4          2.9043   -0.5744   -0.6788 C.ar      1 <0>        -0.0537
      5 C5          1.8396   -1.0120    0.0866 C.ar      1 <0>        -0.1200
      6 C6          0.5722   -0.5089   -0.1405 C.ar      1 <0>        -0.1238
      7 C7          4.2855   -1.1248   -0.4329 C.3       1 <0>         0.1215
      8 H1          5.0226   -0.4891   -0.9233 H         1 <0>         0.0892
      9 C8          4.3763   -2.5218   -0.9909 C.2       1 <0>        -0.1591
     10 C9          3.3787   -3.4165   -1.0696 C.2       1 <0>         0.1037
     11 N1          3.8357   -4.5764   -1.6337 N.pl3     1 <0>        -0.5982
     12 H2          3.2979   -5.3676   -1.7942 H         1 <0>         0.4102
     13 C10         5.1726   -4.4532   -1.9395 C.ar      1 <0>         0.0900
     14 C11         5.5683   -3.1586   -1.5561 C.ar      1 <0>        -0.0879
     15 C12         6.8871   -2.7460   -1.7544 C.ar      1 <0>        -0.0681
     16 C13         7.7873   -3.6019   -2.3241 C.ar      1 <0>        -0.1547
     17 C14         7.4009   -4.8785   -2.7077 C.ar      1 <0>        -0.1116
     18 C15         6.1067   -5.3095   -2.5128 C.ar      1 <0>        -0.1335
     19 C16         4.5568   -1.1573    1.0492 C.2       1 <0>        -0.3208
     20 C17         5.3584   -0.2479    1.5991 C.2       1 <0>         0.3356
     21 O1          5.7281   -0.3668    2.9011 O.3       1 <0>        -0.6202
     22 C18         5.8470    0.8930    0.7921 C.ar      1 <0>        -0.0625
     23 C19         4.9396    1.7445    0.1621 C.ar      1 <0>        -0.0966
     24 C20         5.4011    2.8065   -0.5883 C.ar      1 <0>        -0.1265
     25 C21         6.7607    3.0272   -0.7168 C.ar      1 <0>        -0.1260
     26 C22         7.6657    2.1862   -0.0943 C.ar      1 <0>        -0.1271
     27 C23         7.2164    1.1242    0.6636 C.ar      1 <0>        -0.0918
     28 N2          3.9319   -2.2006    1.8934 N.pl3     1 <0>         0.1162
     29 O2          4.0645   -2.1658    3.0946 O.2       1 <0>        -0.2327
     30 O3          3.2889   -3.0874    1.3817 O.3       1 <0>        -0.2979
     31 H3         -0.6191    0.8308   -1.3051 H         1 <0>         0.1124
     32 H4          1.2770    1.6079   -2.6705 H         1 <0>         0.1142
     33 H5          3.5340    0.7095   -2.2679 H         1 <0>         0.1171
     34 H6          1.9975   -1.7483    0.8607 H         1 <0>         0.1383
     35 H7         -0.2597   -0.8510    0.4571 H         1 <0>         0.1145
     36 H8          2.3655   -3.2463   -0.7367 H         1 <0>         0.1688
     37 H9          7.1947   -1.7538   -1.4589 H         1 <0>         0.1163
     38 H10         8.8075   -3.2823   -2.4773 H         1 <0>         0.1152
     39 H11         8.1237   -5.5433   -3.1573 H         1 <0>         0.1171
     40 H12         5.8155   -6.3044   -2.8158 H         1 <0>         0.1126
     41 H13         3.8780    1.5727    0.2611 H         1 <0>         0.1250
     42 H14         4.6995    3.4665   -1.0767 H         1 <0>         0.1185
     43 H15         7.1172    3.8594   -1.3058 H         1 <0>         0.1158
     44 H16         8.7259    2.3635   -0.1985 H         1 <0>         0.1185
     45 H17         7.9237    0.4709    1.1527 H         1 <0>         0.1220
@<TRIPOS>BOND
     1    1    6 ar
     2    1    2 ar
     3    1   31 1
     4    2    3 ar
     5    2   32 1
     6    3    4 ar
     7    3   33 1
     8    4    5 ar
     9    4    7 1
    10    5    6 ar
    11    5   34 1
    12    6   35 1
    13    7    8 1
    14    7    9 1
    15    7   19 1
    16    9   14 1
    17    9   10 2
    18   10   11 1
    19   10   36 1
    20   11   12 1
    21   11   13 1
    22   13   18 ar
    23   13   14 ar
    24   14   15 ar
    25   15   16 ar
    26   15   37 1
    27   16   17 ar
    28   16   38 1
    29   17   18 ar
    30   17   39 1
    31   18   40 1
    32   19   20 2
    33   19   28 1
    34   20   21 1
    35   20   22 1
    36   22   27 ar
    37   22   23 ar
    38   23   24 ar
    39   23   41 1
    40   24   25 ar
    41   24   42 1
    42   25   26 ar
    43   25   43 1
    44   26   27 ar
    45   26   44 1
    46   27   45 1
    47   28   29 2
    48   28   30 1
@<TRIPOS>MOLECULE
ZINC00714698
   27    28     0     0     0
SMALL
USER_CHARGES
4-bromo-2-[(4-bromophenyl)iminomethyl]-6-nitro-phenol
@<TRIPOS>ATOM
      1 C1          0.0021   -0.0041    0.0020 C.ar      1 <0>        -0.1104
      2 C2         -0.0166    1.3750    0.0096 C.ar      1 <0>        -0.0738
      3 C3          1.1711    2.0865    0.0021 C.ar      1 <0>        -0.1187
      4 C4          2.3846    1.4198   -0.0130 C.ar      1 <0>        -0.0710
      5 C5          2.4172    0.0411   -0.0208 C.ar      1 <0>        -0.1663
      6 C6          1.2227   -0.6828   -0.0133 C.ar      1 <0>         0.1288
      7 N1          1.2482   -2.0511   -0.0213 N.2       1 <0>        -0.4557
      8 C7          2.0511   -2.6834   -0.8308 C.2       1 <0>         0.2338
      9 C8          2.0785   -4.1534   -0.8395 C.ar      1 <0>        -0.2094
     10 C9          2.9382   -4.8360   -1.7062 C.ar      1 <0>         0.0296
     11 C10         2.9587   -6.2146   -1.7084 C.ar      1 <0>        -0.2229
     12 C11         2.1308   -6.9274   -0.8551 C.ar      1 <0>         0.0474
     13 C12         1.2775   -6.2654    0.0061 C.ar      1 <0>        -0.1861
     14 C13         1.2465   -4.8800    0.0259 C.ar      1 <0>         0.3314
     15 N2          0.3987   -7.0371    0.9134 N.pl3     1 <0>         0.0633
     16 O1          0.4284   -8.2546    0.9003 O.2       1 <0>        -0.2539
     17 O2         -0.3541   -6.4545    1.6733 O.3       1 <0>        -0.1511
     18 Br1         4.1207   -7.1369   -2.8809 Br        1 <0>        -0.0713
     19 Br2         1.1359    3.9772    0.0119 Br        1 <0>        -0.0665
     20 H1         -0.9251   -0.5579    0.0082 H         1 <0>         0.1374
     21 H2         -0.9598    1.9010    0.0169 H         1 <0>         0.1320
     22 H3          3.3075    1.9807   -0.0188 H         1 <0>         0.1285
     23 H4          3.3644   -0.4778   -0.0322 H         1 <0>         0.1282
     24 H5          2.6961   -2.1273   -1.4951 H         1 <0>         0.0971
     25 H6          3.5844   -4.2843   -2.3728 H         1 <0>         0.1280
     26 H7          2.1535   -8.0071   -0.8635 H         1 <0>         0.1356
     27 O3          0.4120   -4.2289    0.8755 O.3       1 <0>        -0.5642
@<TRIPOS>BOND
     1    1    6 ar
     2    1    2 ar
     3    1   20 1
     4    2    3 ar
     5    2   21 1
     6    3    4 ar
     7    3   19 1
     8    4    5 ar
     9    4   22 1
    10    5    6 ar
    11    5   23 1
    12    6    7 1
    13    7    8 2
    14    8    9 1
    15    8   24 1
    16    9   14 ar
    17    9   10 ar
    18   10   11 ar
    19   10   25 1
    20   11   12 ar
    21   11   18 1
    22   12   13 ar
    23   12   26 1
    24   13   14 ar
    25   13   15 1
    26   14   27 1
    27   15   16 2
    28   15   17 1
@<TRIPOS>MOLECULE
ZINC02510366
   36    38     0     0     0
SMALL
USER_CHARGES
(5E)-5-[[5-nitro-2-(p-tolylsulfanyl)phenyl]methylene]-2-thioxo-thiazolidin-4-one
@<TRIPOS>ATOM
      1 C1         -3.9155    2.1959    6.0621 C.3       1 <0>        -0.1174
      2 C2         -3.6338    2.6131    4.6417 C.ar      1 <0>        -0.0826
      3 C3         -4.4659    3.5204    4.0113 C.ar      1 <0>        -0.1063
      4 C4         -4.2106    3.9053    2.7101 C.ar      1 <0>        -0.0916
      5 C5         -3.1160    3.3800    2.0338 C.ar      1 <0>        -0.1085
      6 C6         -2.2854    2.4643    2.6685 C.ar      1 <0>        -0.1088
      7 C7         -2.5435    2.0883    3.9718 C.ar      1 <0>        -0.0985
      8 S1         -2.7863    3.8684    0.3733 S.3       1 <0>         0.0090
      9 C8         -1.2785    3.0465   -0.0214 C.ar      1 <0>        -0.0882
     10 C9         -0.0844    3.7550   -0.0533 C.ar      1 <0>        -0.0737
     11 C10         1.0954    3.1092   -0.3631 C.ar      1 <0>        -0.0643
     12 C11         1.1014    1.7514   -0.6442 C.ar      1 <0>        -0.0231
     13 C12        -0.0710    1.0294   -0.6183 C.ar      1 <0>         0.0070
     14 C13        -1.2780    1.6693   -0.3112 C.ar      1 <0>        -0.0007
     15 C14        -2.5316    0.9090   -0.2869 C.2       1 <0>        -0.0338
     16 C15        -2.5608   -0.3356    0.2574 C.2       1 <0>        -0.1688
     17 C16        -1.5122   -1.0634    0.9974 C.2       1 <0>         0.5228
     18 O1         -0.4197   -0.5698    1.2090 O.3       1 <0>        -0.4962
     19 N1         -1.8187   -2.2785    1.4196 N.2       1 <0>        -0.6430
     20 C17        -3.0303   -2.8216    1.1830 C.2       1 <0>         0.3887
     21 S2         -3.6123   -4.3645    1.6431 S.2       1 <0>        -0.5389
     22 S3         -3.8831   -1.5384    0.2805 S.3       1 <0>        -0.1458
     23 N2          2.3760    1.0738   -0.9747 N.pl3     1 <0>         0.0284
     24 O2          2.3853   -0.1187   -1.2226 O.2       1 <0>        -0.1456
     25 O3          3.4150    1.7089   -0.9986 O.3       1 <0>        -0.1645
     26 H1         -4.8158    2.7137    6.4246 H         1 <0>         0.0659
     27 H2         -3.0586    2.4609    6.6989 H         1 <0>         0.0698
     28 H3         -4.0778    1.1086    6.0995 H         1 <0>         0.0728
     29 H4         -5.3161    3.9285    4.5375 H         1 <0>         0.1277
     30 H5         -4.8606    4.6140    2.2185 H         1 <0>         0.1280
     31 H6         -1.4364    2.0507    2.1445 H         1 <0>         0.1227
     32 H7         -1.8957    1.3804    4.4673 H         1 <0>         0.1243
     33 H8         -0.0791    4.8129    0.1642 H         1 <0>         0.1567
     34 H9          2.0209    3.6655   -0.3863 H         1 <0>         0.1576
     35 H10        -0.0602   -0.0278   -0.8388 H         1 <0>         0.1605
     36 H11        -3.4483    1.3462   -0.7093 H         1 <0>         0.1583
@<TRIPOS>BOND
     1    1    2 1
     2    1   26 1
     3    1   27 1
     4    1   28 1
     5    2    7 ar
     6    2    3 ar
     7    3    4 ar
     8    3   29 1
     9    4    5 ar
    10    4   30 1
    11    5    6 ar
    12    5    8 1
    13    6    7 ar
    14    6   31 1
    15    7   32 1
    16    8    9 1
    17    9   14 ar
    18    9   10 ar
    19   10   11 ar
    20   10   33 1
    21   11   12 ar
    22   11   34 1
    23   12   13 ar
    24   12   23 1
    25   13   14 ar
    26   13   35 1
    27   14   15 1
    28   15   16 2
    29   15   36 1
    30   16   22 1
    31   16   17 1
    32   17   18 1
    33   17   19 2
    34   19   20 1
    35   20   21 2
    36   20   22 1
    37   23   24 2
    38   23   25 1
@<TRIPOS>MOLECULE
ZINC02211614
   54    57     0     0     0
SMALL
USER_CHARGES

@<TRIPOS>ATOM
      1 C1          0.7450    0.5534   -0.2752 C.3       1 <0>        -0.1085
      2 C2          1.4103   -0.7988   -0.2673 C.ar      1 <0>        -0.0823
      3 C3          2.0421   -1.2645   -1.4060 C.ar      1 <0>        -0.1180
      4 C4          2.6540   -2.5043   -1.4026 C.ar      1 <0>        -0.1085
      5 C5          2.6360   -3.2818   -0.2610 C.ar      1 <0>        -0.0939
      6 C6          2.0026   -2.8171    0.8837 C.ar      1 <0>         0.1625
      7 C7          1.3934   -1.5691    0.8787 C.ar      1 <0>        -0.0900
      8 N1          1.9822   -3.6034    2.0428 N.am      1 <0>        -0.5120
      9 C8          0.9494   -4.4472    2.2549 C.2       1 <0>         0.5600
     10 O1          0.0358   -4.5363    1.4560 O.2       1 <0>        -0.5073
     11 C9          0.9663   -5.2583    3.4883 C.2       1 <0>        -0.2843
     12 C10        -0.0535   -6.1494    3.7834 C.2       1 <0>         0.1038
     13 C11        -0.1228   -6.7474    5.0667 C.ar      1 <0>        -0.1624
     14 C12        -0.0115   -5.9545    6.2210 C.ar      1 <0>         0.0556
     15 C13        -0.0789   -6.5354    7.4535 C.ar      1 <0>        -0.2160
     16 C14        -0.2575   -7.9135    7.5688 C.ar      1 <0>         0.2427
     17 C15        -0.3686   -8.7055    6.4266 C.ar      1 <0>        -0.2232
     18 C16        -0.3089   -8.1345    5.1890 C.ar      1 <0>        -0.0291
     19 N2         -0.3244   -8.4990    8.8250 N.pl3     1 <0>        -0.6136
     20 C17        -0.3830   -9.9408    8.9154 C.3       1 <0>         0.1250
     21 C18        -1.8602  -10.4040    8.8779 C.3       1 <0>        -0.1414
     22 C19        -2.5384  -10.0511   10.1346 C.3       1 <0>        -0.1141
     23 C20        -2.6195   -8.5518   10.4053 C.3       1 <0>        -0.1152
     24 C21        -1.3461   -8.0945   11.0731 C.3       1 <0>        -0.1315
     25 C22        -0.3268   -7.6245   10.0141 C.3       1 <0>         0.1168
     26 C23         2.1152   -5.0783    4.3898 C.2       1 <0>         0.4947
     27 O2          2.2085   -5.7816    5.5386 O.3       1 <0>        -0.5751
     28 N3          3.0536   -4.2128    4.0491 N.2       1 <0>        -0.5974
     29 C24         2.9913   -3.5100    2.9211 C.2       1 <0>         0.5454
     30 S1          4.2665   -2.4214    2.5749 S.2       1 <0>        -0.6620
     31 H1          1.4644    1.3140    0.0280 H         1 <0>         0.0701
     32 H2          0.3838    0.7747   -1.2795 H         1 <0>         0.0640
     33 H3         -0.0944    0.5494    0.4201 H         1 <0>         0.0628
     34 H4          2.0572   -0.6586   -2.2999 H         1 <0>         0.1206
     35 H5          3.1462   -2.8654   -2.2935 H         1 <0>         0.1238
     36 H6          3.1139   -4.2504   -0.2590 H         1 <0>         0.1178
     37 H7          0.9034   -1.2032    1.7689 H         1 <0>         0.1172
     38 H8         -0.7953   -6.3880    3.0356 H         1 <0>         0.1350
     39 H9          0.1276   -4.8871    6.1328 H         1 <0>         0.1138
     40 H10         0.0066   -5.9268    8.3416 H         1 <0>         0.1199
     41 H11        -0.5064   -9.7724    6.5218 H         1 <0>         0.1199
     42 H12        -0.3995   -8.7482    4.3050 H         1 <0>         0.1186
     43 H13         0.1563  -10.3793    8.0757 H         1 <0>         0.0763
     44 H14         0.0754  -10.2648    9.8497 H         1 <0>         0.0695
     45 H15        -2.3693   -9.9194    8.0448 H         1 <0>         0.0683
     46 H16        -1.8961  -11.4847    8.7398 H         1 <0>         0.0680
     47 H17        -3.5512  -10.4529   10.1060 H         1 <0>         0.0539
     48 H18        -2.0055  -10.5235   10.9598 H         1 <0>         0.0554
     49 H19        -2.7479   -8.0186    9.4633 H         1 <0>         0.0683
     50 H20        -3.4672   -8.3456   11.0588 H         1 <0>         0.0591
     51 H21        -1.5692   -7.2705   11.7508 H         1 <0>         0.0727
     52 H22        -0.9186   -8.9211   11.6405 H         1 <0>         0.0633
     53 H23         0.6706   -7.6224   10.4539 H         1 <0>         0.0576
     54 H24        -0.5782   -6.6095    9.7064 H         1 <0>         0.0832
@<TRIPOS>BOND
     1    1    2 1
     2    1   31 1
     3    1   32 1
     4    1   33 1
     5    2    7 ar
     6    2    3 ar
     7    3    4 ar
     8    3   34 1
     9    4    5 ar
    10    4   35 1
    11    5    6 ar
    12    5   36 1
    13    6    7 ar
    14    6    8 1
    15    7   37 1
    16    8   29 1
    17    8    9 am
    18    9   10 2
    19    9   11 1
    20   11   12 2
    21   11   26 1
    22   12   13 1
    23   12   38 1
    24   13   18 ar
    25   13   14 ar
    26   14   15 ar
    27   14   39 1
    28   15   16 ar
    29   15   40 1
    30   16   17 ar
    31   16   19 1
    32   17   18 ar
    33   17   41 1
    34   18   42 1
    35   19   25 1
    36   19   20 1
    37   20   21 1
    38   20   43 1
    39   20   44 1
    40   21   22 1
    41   21   45 1
    42   21   46 1
    43   22   23 1
    44   22   47 1
    45   22   48 1
    46   23   24 1
    47   23   49 1
    48   23   50 1
    49   24   25 1
    50   24   51 1
    51   24   52 1
    52   25   53 1
    53   25   54 1
    54   26   27 1
    55   26   28 2
    56   28   29 1
    57   29   30 2
@<TRIPOS>MOLECULE
ZINC43765314
   71    74     0     0     0
SMALL
USER_CHARGES

@<TRIPOS>ATOM
      1 C1          0.4954    1.4161    0.2863 C.3       1 <0>        -0.1559
      2 C2          0.0021   -0.0041    0.0020 C.3       1 <0>        -0.0902
      3 H1         -1.0852   -0.0024   -0.0751 H         1 <0>         0.0735
      4 C3          0.4312   -0.9307    1.1414 C.3       1 <0>        -0.0887
      5 C4         -0.2714   -0.5093    2.4336 C.3       1 <0>        -0.1819
      6 C5          0.1512   -1.4220    3.5558 C.2       1 <0>         0.4874
      7 O1          0.9411   -2.3257    3.3419 O.co2     1 <0>        -0.7001
      8 O2         -0.2968   -1.2566    4.6776 O.co2     1 <0>        -0.7113
      9 C6          0.6024   -0.4970   -1.3058 C.3       1 <0>        -0.0665
     10 H2          1.6644   -0.1932   -1.3410 H         1 <0>         0.0605
     11 C7          0.5444   -2.0374   -1.3944 C.3       1 <0>        -0.1283
     12 C8          0.1989   -2.3434   -2.8713 C.3       1 <0>        -0.1214
     13 C9         -0.7234   -1.1627   -3.2787 C.3       1 <0>        -0.0667
     14 H3         -0.6517   -0.9990   -4.3793 H         1 <0>         0.0618
     15 C10        -0.0991    0.0348   -2.5511 C.3       1 <0>        -0.0390
     16 C11        -1.0344    1.1952   -2.3623 C.3       1 <0>        -0.1121
     17 C12        -2.4290    0.7993   -1.8842 C.3       1 <0>        -0.1222
     18 C13        -3.0284   -0.2240   -2.8431 C.3       1 <0>        -0.0563
     19 H4         -3.0231    0.2303   -3.8568 H         1 <0>         0.0565
     20 C14        -2.1576   -1.4699   -2.9057 C.3       1 <0>        -0.0604
     21 H5         -2.5651   -2.1076   -3.7219 H         1 <0>         0.0533
     22 C15        -2.2830   -2.2837   -1.6239 C.3       1 <0>        -0.1211
     23 C16        -3.7383   -2.7522   -1.5020 C.3       1 <0>        -0.1186
     24 C17        -4.6505   -1.5346   -1.3636 C.3       1 <0>        -0.0630
     25 H6         -5.6941   -1.9091   -1.3998 H         1 <0>         0.0678
     26 C18        -4.4768   -0.5468   -2.5005 C.3       1 <0>        -0.0332
     27 C19        -5.2716    0.7376   -2.2660 C.3       1 <0>        -0.0969
     28 C20        -5.1555    1.3059   -0.8642 C.3       1 <0>        -0.1395
     29 C21        -5.4341    0.2428    0.1962 C.3       1 <0>         0.0900
     30 H7         -5.3039    0.6763    1.1890 H         1 <0>         0.0830
     31 C22        -4.4433   -0.9070    0.0110 C.3       1 <0>        -0.1151
     32 O3         -6.7700   -0.2412    0.0599 O.3       1 <0>        -0.3402
     33 C23        -7.7244    0.4010    0.7518 C.2       1 <0>         0.4542
     34 O4         -7.4338    1.3432    1.4501 O.2       1 <0>        -0.5137
     35 C24        -9.1582   -0.0533    0.6576 C.3       1 <0>        -0.1468
     36 C25        -5.1039   -1.1964   -3.7663 C.3       1 <0>        -0.1472
     37 C26         1.0293    0.5585   -3.4841 C.3       1 <0>        -0.1480
     38 H8          1.5692    1.4703    0.1076 H         1 <0>         0.0477
     39 H9         -0.0183    2.1175   -0.3711 H         1 <0>         0.0551
     40 H10         0.2865    1.6721    1.3251 H         1 <0>         0.0582
     41 H11         0.1578   -1.9572    0.8974 H         1 <0>         0.0637
     42 H12         1.5107   -0.8645    1.2766 H         1 <0>         0.0538
     43 H13         0.0019    0.5173    2.6776 H         1 <0>         0.0552
     44 H14        -1.3510   -0.5755    2.2984 H         1 <0>         0.0504
     45 H15         1.5216   -2.4580   -1.1509 H         1 <0>         0.0572
     46 H16        -0.2100   -2.4324   -0.7251 H         1 <0>         0.0841
     47 H17         1.1064   -2.3580   -3.4767 H         1 <0>         0.0574
     48 H18        -0.3209   -3.2967   -2.9555 H         1 <0>         0.0637
     49 H19        -0.6058    1.9256   -1.6765 H         1 <0>         0.0762
     50 H20        -1.1470    1.7041   -3.3333 H         1 <0>         0.0475
     51 H21        -2.4070    0.4260   -0.8717 H         1 <0>         0.0789
     52 H22        -3.0479    1.7111   -1.9180 H         1 <0>         0.0593
     53 H23        -1.6405   -3.1625   -1.6688 H         1 <0>         0.0684
     54 H24        -2.0301   -1.6778   -0.7595 H         1 <0>         0.0758
     55 H25        -4.0095   -3.3317   -2.3812 H         1 <0>         0.0592
     56 H26        -3.8360   -3.3808   -0.6146 H         1 <0>         0.0615
     57 H27        -4.9347    1.4910   -2.9908 H         1 <0>         0.0587
     58 H28        -6.3292    0.5341   -2.4858 H         1 <0>         0.0574
     59 H29        -4.1749    1.7420   -0.6880 H         1 <0>         0.0895
     60 H30        -5.8973    2.1111   -0.7455 H         1 <0>         0.0579
     61 H31        -4.6310   -1.6628    0.7812 H         1 <0>         0.0699
     62 H32        -3.4264   -0.5456    0.1198 H         1 <0>         0.0924
     63 H33        -9.3550   -0.7975    1.4293 H         1 <0>         0.1032
     64 H34        -9.8201    0.8010    0.7994 H         1 <0>         0.0992
     65 H35        -9.3365   -0.4920   -0.3242 H         1 <0>         0.0917
     66 H36        -4.5547   -2.1034   -4.0191 H         1 <0>         0.0561
     67 H37        -6.1462   -1.4461   -3.5680 H         1 <0>         0.0513
     68 H38        -5.0503   -0.4952   -4.5990 H         1 <0>         0.0491
     69 H39         1.7201   -0.2538   -3.7102 H         1 <0>         0.0513
     70 H40         0.5914    0.9313   -4.4100 H         1 <0>         0.0456
     71 H41         1.5674    1.3650   -2.9861 H         1 <0>         0.0502
@<TRIPOS>BOND
     1    1    2 1
     2    1   38 1
     3    1   39 1
     4    1   40 1
     5    2    3 1
     6    2    4 1
     7    2    9 1
     8    4    5 1
     9    4   41 1
    10    4   42 1
    11    5    6 1
    12    5   43 1
    13    5   44 1
    14    6    7 2
    15    6    8 1
    16    9   10 1
    17    9   15 1
    18    9   11 1
    19   11   12 1
    20   11   45 1
    21   11   46 1
    22   12   13 1
    23   12   47 1
    24   12   48 1
    25   13   14 1
    26   13   20 1
    27   13   15 1
    28   15   16 1
    29   15   37 1
    30   16   17 1
    31   16   49 1
    32   16   50 1
    33   17   18 1
    34   17   51 1
    35   17   52 1
    36   18   19 1
    37   18   26 1
    38   18   20 1
    39   20   21 1
    40   20   22 1
    41   22   23 1
    42   22   53 1
    43   22   54 1
    44   23   24 1
    45   23   55 1
    46   23   56 1
    47   24   25 1
    48   24   31 1
    49   24   26 1
    50   26   27 1
    51   26   36 1
    52   27   28 1
    53   27   57 1
    54   27   58 1
    55   28   29 1
    56   28   59 1
    57   28   60 1
    58   29   30 1
    59   29   31 1
    60   29   32 1
    61   31   61 1
    62   31   62 1
    63   32   33 1
    64   33   34 2
    65   33   35 1
    66   35   63 1
    67   35   64 1
    68   35   65 1
    69   36   66 1
    70   36   67 1
    71   36   68 1
    72   37   69 1
    73   37   70 1
    74   37   71 1
@<TRIPOS>MOLECULE
ZINC17194905
   40    42     0     0     0
SMALL
USER_CHARGES

@<TRIPOS>ATOM
      1 C1          1.8876   -0.9611   -2.2790 C.2       1 <0>        -0.1637
      2 C2          0.6580   -0.6440   -1.9570 C.2       1 <0>        -0.1632
      3 C3         -0.4661   -1.6086   -2.2343 C.3       1 <0>         0.0840
      4 O1         -1.3196   -1.6868   -1.0908 O.3       1 <0>        -0.3048
      5 C4         -2.3895   -2.5185   -1.1759 C.ar      1 <0>         0.1610
      6 C5         -2.6079   -3.2491   -2.3381 C.ar      1 <0>        -0.2085
      7 C6         -3.6911   -4.0939   -2.4299 C.ar      1 <0>        -0.0470
      8 C7         -4.5736   -4.2164   -1.3496 C.ar      1 <0>        -0.1385
      9 C8         -4.3486   -3.4780   -0.1812 C.ar      1 <0>        -0.0351
     10 C9         -3.2590   -2.6406   -0.0983 C.ar      1 <0>        -0.1543
     11 C10        -5.7310   -5.1156   -1.4418 C.2       1 <0>         0.0858
     12 C11        -5.7690   -6.0769   -2.3992 C.2       1 <0>        -0.2434
     13 C12        -6.8752   -6.9759   -2.7797 C.2       1 <0>         0.5560
     14 O2         -7.9533   -6.9319   -2.2163 O.2       1 <0>        -0.4861
     15 N1         -6.6425   -7.8313   -3.7609 N.am      1 <0>        -0.6891
     16 C13        -5.4153   -7.8653   -4.3866 C.2       1 <0>         0.3636
     17 N2         -5.0203   -8.6439   -5.3688 N.2       1 <0>        -0.4597
     18 C14        -5.8795   -9.5693   -5.8963 C.ar      1 <0>         0.1095
     19 C15        -6.6569  -10.3659   -5.0525 C.ar      1 <0>        -0.1650
     20 C16        -7.5212  -11.2963   -5.5906 C.ar      1 <0>        -0.0667
     21 C17        -7.6191  -11.4417   -6.9640 C.ar      1 <0>        -0.0998
     22 C18        -6.8511  -10.6557   -7.8061 C.ar      1 <0>        -0.0698
     23 C19        -5.9870   -9.7175   -7.2810 C.ar      1 <0>        -0.0963
     24 Br1        -8.8068  -12.7200   -7.6929 Br        1 <0>        -0.0421
     25 S1         -4.4951   -6.5888   -3.5432 S.3       1 <0>         0.0983
     26 H1          2.6932   -0.2698   -2.0803 H         1 <0>         0.1104
     27 H2          2.0963   -1.9156   -2.7391 H         1 <0>         0.1010
     28 H3          0.4499    0.3087   -1.4928 H         1 <0>         0.1217
     29 H4         -1.0402   -1.2604   -3.0929 H         1 <0>         0.0767
     30 H5         -0.0542   -2.5948   -2.4483 H         1 <0>         0.0724
     31 H6         -1.9268   -3.1535   -3.1708 H         1 <0>         0.1376
     32 H7         -3.8601   -4.6607   -3.3335 H         1 <0>         0.1364
     33 H8         -5.0261   -3.5687    0.6550 H         1 <0>         0.1430
     34 H9         -3.0821   -2.0739    0.8039 H         1 <0>         0.1413
     35 H10        -6.5520   -5.0119   -0.7477 H         1 <0>         0.1629
     36 H11        -7.3424   -8.4409   -4.0427 H         1 <0>         0.4172
     37 H12        -6.5811  -10.2537   -3.9810 H         1 <0>         0.1304
     38 H13        -8.1226  -11.9131   -4.9393 H         1 <0>         0.1388
     39 H14        -6.9320  -10.7743   -8.8765 H         1 <0>         0.1422
     40 H15        -5.3920   -9.1016   -7.9391 H         1 <0>         0.1431
@<TRIPOS>BOND
     1    1    2 2
     2    1   26 1
     3    1   27 1
     4    2    3 1
     5    2   28 1
     6    3    4 1
     7    3   29 1
     8    3   30 1
     9    4    5 1
    10    5   10 ar
    11    5    6 ar
    12    6    7 ar
    13    6   31 1
    14    7    8 ar
    15    7   32 1
    16    8    9 ar
    17    8   11 1
    18    9   10 ar
    19    9   33 1
    20   10   34 1
    21   11   12 2
    22   11   35 1
    23   12   25 1
    24   12   13 1
    25   13   14 2
    26   13   15 am
    27   15   16 1
    28   15   36 1
    29   16   17 2
    30   16   25 1
    31   17   18 1
    32   18   23 ar
    33   18   19 ar
    34   19   20 ar
    35   19   37 1
    36   20   21 ar
    37   20   38 1
    38   21   22 ar
    39   21   24 1
    40   22   23 ar
    41   22   39 1
    42   23   40 1
@<TRIPOS>MOLECULE
ZINC65003858
   41    43     0     0     0
SMALL
USER_CHARGES

@<TRIPOS>ATOM
      1 C1          0.5856    1.5486   -0.1108 C.3       1 <0>        -0.0951
      2 C2          0.4519    0.0519    0.0046 C.ar      1 <0>        -0.1533
      3 C3          1.4751   -0.7679   -0.4350 C.ar      1 <0>        -0.1101
      4 C4          1.3559   -2.1399   -0.3307 C.ar      1 <0>        -0.1218
      5 C5          0.2066   -2.6960    0.2164 C.ar      1 <0>         0.2464
      6 C6         -0.8193   -1.8695    0.6570 C.ar      1 <0>        -0.1614
      7 C7         -0.6912   -0.4982    0.5550 C.ar      1 <0>        -0.1052
      8 C8         -2.0682   -2.4684    1.2508 C.3       1 <0>        -0.1004
      9 N1          0.0825   -4.0832    0.3230 N.2       1 <0>        -1.1162
     10 S1          0.0457   -4.7990    1.8158 S.o2      1 <0>         2.6211
     11 O1          1.2066   -4.3578    2.5065 O.2       1 <0>        -1.0294
     12 O2         -1.2655   -4.6038    2.3276 O.2       1 <0>        -1.0147
     13 C9          0.2362   -6.5329    1.5670 C.2       1 <0>        -0.6506
     14 C10         1.3764   -7.2690    1.5279 C.2       1 <0>        -0.0528
     15 C11         1.2919   -8.6278    1.3187 C.2       1 <0>        -0.1466
     16 C12         0.0523   -9.1927    1.1563 C.2       1 <0>        -0.1081
     17 S2         -1.0207   -7.7740    1.3094 S.3       1 <0>         0.2143
     18 C13        -0.3013  -10.6025    0.9222 C.2       1 <0>         0.0434
     19 C14        -1.5539  -11.1090    0.7623 C.2       1 <0>        -0.0122
     20 N2         -1.4329  -12.4314    0.5732 N.2       1 <0>        -0.4776
     21 C15        -0.1697  -12.7503    0.6107 C.2       1 <0>         0.1918
     22 O3          0.5563  -11.6421    0.8189 O.3       1 <0>        -0.1920
     23 C16         0.3863  -14.1407    0.4411 C.3       1 <0>        -0.0562
     24 C17         2.4712   -3.0326   -0.8105 C.3       1 <0>        -0.0907
     25 H1          1.0504    1.9426    0.7930 H         1 <0>         0.0533
     26 H2          1.2049    1.7926   -0.9739 H         1 <0>         0.0527
     27 H3         -0.4019    1.9930   -0.2349 H         1 <0>         0.0526
     28 H4          2.3682   -0.3349   -0.8606 H         1 <0>         0.1023
     29 H5         -1.4865    0.1451    0.9014 H         1 <0>         0.1016
     30 H6         -1.9272   -2.6150    2.3217 H         1 <0>         0.0682
     31 H7         -2.9089   -1.7949    1.0840 H         1 <0>         0.0378
     32 H8         -2.2719   -3.4283    0.7764 H         1 <0>         0.0778
     33 H9          2.3379   -6.7949    1.6588 H         1 <0>         0.1489
     34 H10         2.1835   -9.2362    1.2828 H         1 <0>         0.1394
     35 H11        -2.4770  -10.5487    0.7840 H         1 <0>         0.1906
     36 H12         0.5890  -14.3248   -0.6139 H         1 <0>         0.0944
     37 H13         1.3111  -14.2341    1.0105 H         1 <0>         0.0891
     38 H14        -0.3390  -14.8688    0.8042 H         1 <0>         0.1026
     39 H15         3.1686   -3.2141    0.0073 H         1 <0>         0.0520
     40 H16         2.0562   -3.9811   -1.1515 H         1 <0>         0.0741
     41 H17         2.9954   -2.5483   -1.6343 H         1 <0>         0.0402
@<TRIPOS>BOND
     1    1    2 1
     2    1   25 1
     3    1   26 1
     4    1   27 1
     5    2    7 ar
     6    2    3 ar
     7    3    4 ar
     8    3   28 1
     9    4    5 ar
    10    4   24 1
    11    5    6 ar
    12    5    9 1
    13    6    7 ar
    14    6    8 1
    15    7   29 1
    16    8   30 1
    17    8   31 1
    18    8   32 1
    19    9   10 1
    20   10   11 2
    21   10   12 2
    22   10   13 1
    23   13   17 1
    24   13   14 2
    25   14   15 1
    26   14   33 1
    27   15   16 2
    28   15   34 1
    29   16   17 1
    30   16   18 1
    31   18   22 1
    32   18   19 2
    33   19   20 1
    34   19   35 1
    35   20   21 2
    36   21   22 1
    37   21   23 1
    38   23   36 1
    39   23   37 1
    40   23   38 1
    41   24   39 1
    42   24   40 1
    43   24   41 1
@<TRIPOS>MOLECULE
ZINC19596763
   37    38     0     0     0
SMALL
USER_CHARGES
propyl 4-[(3-bromo-5-chloro-2-hydroxy-phenyl)methyleneamino]benzoate
@<TRIPOS>ATOM
      1 C1          3.5317    7.8206    0.0105 C.3       1 <0>        -0.1513
      2 C2          3.6327    6.2939    0.0013 C.3       1 <0>        -0.1254
      3 C3          2.2271    5.6898    0.0115 C.3       1 <0>         0.0647
      4 O1          2.3229    4.2410    0.0027 O.3       1 <0>        -0.3561
      5 C4          1.1652    3.5512    0.0101 C.2       1 <0>         0.5162
      6 O2          0.1047    4.1443    0.0234 O.2       1 <0>        -0.5187
      7 C5          1.1853    2.0770    0.0019 C.ar      1 <0>        -0.1773
      8 C6         -0.0164    1.3611    0.0095 C.ar      1 <0>        -0.0319
      9 C7          0.0021   -0.0041    0.0020 C.ar      1 <0>        -0.1381
     10 C8          1.2231   -0.6870   -0.0134 C.ar      1 <0>         0.1672
     11 C9          2.4250    0.0292   -0.0210 C.ar      1 <0>        -0.1955
     12 C10         2.4062    1.3943   -0.0135 C.ar      1 <0>        -0.0353
     13 N1          1.2418   -2.0522   -0.0213 N.2       1 <0>        -0.4731
     14 C11         2.0424   -2.6893   -0.8319 C.2       1 <0>         0.2476
     15 C12         2.0625   -4.1584   -0.8405 C.ar      1 <0>        -0.2365
     16 C13         2.9192   -4.8457   -1.7078 C.ar      1 <0>        -0.0032
     17 C14         2.9330   -6.2241   -1.7100 C.ar      1 <0>        -0.1697
     18 C15         2.1017   -6.9335   -0.8565 C.ar      1 <0>        -0.0120
     19 C16         1.2512   -6.2675    0.0052 C.ar      1 <0>        -0.2098
     20 C17         1.2268   -4.8810    0.0252 C.ar      1 <0>         0.3196
     21 O3          0.3953   -4.2259    0.8745 O.3       1 <0>        -0.6114
     22 Br1         0.1230   -7.2481    1.1635 Br        1 <0>        -0.0793
     23 Cl1         3.9957   -7.0758   -2.7866 Cl        1 <0>        -0.1110
     24 H1          4.5423    8.2550    0.0032 H         1 <0>         0.0647
     25 H2          2.9987    8.1473    0.9156 H         1 <0>         0.0581
     26 H3          2.9815    8.1570   -0.8806 H         1 <0>         0.0581
     27 H4          4.1657    5.9672   -0.9038 H         1 <0>         0.0746
     28 H5          4.1829    5.9574    0.8924 H         1 <0>         0.0747
     29 H6          1.6942    6.0166    0.9166 H         1 <0>         0.0695
     30 H7          1.6769    6.0263   -0.8796 H         1 <0>         0.0695
     31 H8         -0.9590    1.8883    0.0169 H         1 <0>         0.1342
     32 H9         -0.9258   -0.5568    0.0083 H         1 <0>         0.1363
     33 H10         3.3676   -0.4979   -0.0325 H         1 <0>         0.1266
     34 H11         3.3339    1.9472   -0.0191 H         1 <0>         0.1313
     35 H12         2.7020   -2.1263   -1.5086 H         1 <0>         0.0912
     36 H13         3.5682   -4.2972   -2.3744 H         1 <0>         0.1157
     37 H14         2.1192   -8.0134   -0.8651 H         1 <0>         0.1160
@<TRIPOS>BOND
     1    1    2 1
     2    1   24 1
     3    1   25 1
     4    1   26 1
     5    2    3 1
     6    2   27 1
     7    2   28 1
     8    3    4 1
     9    3   29 1
    10    3   30 1
    11    4    5 1
    12    5    6 2
    13    5    7 1
    14    7   12 ar
    15    7    8 ar
    16    8    9 ar
    17    8   31 1
    18    9   10 ar
    19    9   32 1
    20   10   11 ar
    21   10   13 1
    22   11   12 ar
    23   11   33 1
    24   12   34 1
    25   13   14 2
    26   14   15 1
    27   14   35 1
    28   15   20 ar
    29   15   16 ar
    30   16   17 ar
    31   16   36 1
    32   17   18 ar
    33   17   23 1
    34   18   19 ar
    35   18   37 1
    36   19   20 ar
    37   19   22 1
    38   20   21 1
@<TRIPOS>MOLECULE
ZINC15016022
   46    48     0     0     0
SMALL
USER_CHARGES

@<TRIPOS>ATOM
      1 C1          0.2376    0.0767    0.4382 C.3       1 <0>        -0.1738
      2 C2          0.3434   -1.3951    0.0340 C.3       1 <0>         0.1129
      3 N1          0.9651   -1.4947   -1.2889 N.pl3     1 <0>        -0.6168
      4 C3          2.4206   -1.6113   -1.4073 C.3       1 <0>         0.1124
      5 C4          2.8168   -3.0890   -1.3923 C.3       1 <0>        -0.1739
      6 C5          0.1725   -1.4785   -2.4336 C.ar      1 <0>         0.2496
      7 C6         -1.2100   -1.3618   -2.3188 C.ar      1 <0>        -0.2060
      8 C7         -1.9973   -1.3449   -3.4471 C.ar      1 <0>        -0.0242
      9 C8         -1.4055   -1.4454   -4.7128 C.ar      1 <0>        -0.1657
     10 C9         -0.0140   -1.5626   -4.8234 C.ar      1 <0>        -0.0356
     11 C10         0.7655   -1.5733   -3.6896 C.ar      1 <0>        -0.2010
     12 C11        -2.2411   -1.4283   -5.9196 C.2       1 <0>         0.0928
     13 C12        -1.6805   -1.1742   -7.1299 C.2       1 <0>        -0.2445
     14 C13        -2.2838   -1.2450   -8.4738 C.2       1 <0>         0.5634
     15 O1         -3.4468   -1.5673   -8.6328 O.2       1 <0>        -0.4880
     16 N2         -1.5044   -0.9422   -9.4982 N.am      1 <0>        -0.6489
     17 C14        -0.1901   -0.5796   -9.2974 C.2       1 <0>         0.3868
     18 N3          0.7129   -0.2511  -10.1935 N.2       1 <0>        -0.4695
     19 C15         1.9803    0.0830   -9.7977 C.ar      1 <0>         0.0912
     20 C16         2.1726    0.9419   -8.7134 C.ar      1 <0>        -0.1203
     21 C17         3.4518    1.2749   -8.3193 C.ar      1 <0>        -0.1313
     22 C18         4.5448    0.7595   -8.9971 C.ar      1 <0>         0.0960
     23 C19         4.3604   -0.0931  -10.0736 C.ar      1 <0>        -0.1373
     24 C20         3.0860   -0.4383  -10.4731 C.ar      1 <0>        -0.0699
     25 F1          5.7954    1.0899   -8.6071 F         1 <0>        -0.1361
     26 S1         -0.0157   -0.6566   -7.5222 S.3       1 <0>        -0.0182
     27 H1          1.2342    0.5171    0.4710 H         1 <0>         0.0574
     28 H2         -0.3718    0.6108   -0.2908 H         1 <0>         0.0599
     29 H3         -0.2249    0.1509    1.4224 H         1 <0>         0.0671
     30 H4          0.9529   -1.9292    0.7630 H         1 <0>         0.0774
     31 H5         -0.6531   -1.8354    0.0012 H         1 <0>         0.0790
     32 H6          2.7465   -1.1573   -2.3431 H         1 <0>         0.0792
     33 H7          2.8954   -1.0993   -0.5703 H         1 <0>         0.0776
     34 H8          2.4908   -3.5431   -0.4565 H         1 <0>         0.0573
     35 H9          2.3419   -3.6010   -2.2293 H         1 <0>         0.0599
     36 H10         3.8997   -3.1758   -1.4804 H         1 <0>         0.0674
     37 H11        -1.6653   -1.2848   -1.3425 H         1 <0>         0.1302
     38 H12        -3.0697   -1.2547   -3.3570 H         1 <0>         0.1320
     39 H13         0.4465   -1.6407   -5.7971 H         1 <0>         0.1346
     40 H14         1.8387   -1.6595   -3.7739 H         1 <0>         0.1297
     41 H15        -3.3017   -1.6179   -5.8448 H         1 <0>         0.1569
     42 H16        -1.8611   -0.9759  -10.3996 H         1 <0>         0.4228
     43 H17         1.3214    1.3448   -8.1848 H         1 <0>         0.1402
     44 H18         3.6018    1.9390   -7.4809 H         1 <0>         0.1414
     45 H19         5.2161   -0.4918  -10.5982 H         1 <0>         0.1439
     46 H20         2.9434   -1.1064  -11.3095 H         1 <0>         0.1420
@<TRIPOS>BOND
     1    1    2 1
     2    1   27 1
     3    1   28 1
     4    1   29 1
     5    2    3 1
     6    2   30 1
     7    2   31 1
     8    3    4 1
     9    3    6 1
    10    4    5 1
    11    4   32 1
    12    4   33 1
    13    5   34 1
    14    5   35 1
    15    5   36 1
    16    6   11 ar
    17    6    7 ar
    18    7    8 ar
    19    7   37 1
    20    8    9 ar
    21    8   38 1
    22    9   10 ar
    23    9   12 1
    24   10   11 ar
    25   10   39 1
    26   11   40 1
    27   12   13 2
    28   12   41 1
    29   13   26 1
    30   13   14 1
    31   14   15 2
    32   14   16 am
    33   16   17 1
    34   16   42 1
    35   17   18 2
    36   17   26 1
    37   18   19 1
    38   19   24 ar
    39   19   20 ar
    40   20   21 ar
    41   20   43 1
    42   21   22 ar
    43   21   44 1
    44   22   23 ar
    45   22   25 1
    46   23   24 ar
    47   23   45 1
    48   24   46 1
@<TRIPOS>MOLECULE
ZINC40022516
   49    51     0     0     0
SMALL
USER_CHARGES

@<TRIPOS>ATOM
      1 C1          0.2724    2.6892   -0.4376 C.3       1 <0>        -0.1385
      2 C2          0.4158    1.2107   -0.0712 C.3       1 <0>        -0.0272
      3 C3          1.3421    1.0726    1.1387 C.3       1 <0>        -0.1364
      4 C4         -0.9595    0.6343    0.2710 C.3       1 <0>        -0.1416
      5 C5          0.9995    0.4581   -1.2391 C.ar      1 <0>        -0.0808
      6 C6          0.2872   -0.5731   -1.8224 C.ar      1 <0>        -0.1237
      7 C7          0.8226   -1.2634   -2.8937 C.ar      1 <0>        -0.1139
      8 C8          2.0700   -0.9223   -3.3820 C.ar      1 <0>        -0.0758
      9 C9          2.7818    0.1095   -2.7993 C.ar      1 <0>        -0.0850
     10 C10         2.2446    0.8027   -1.7308 C.ar      1 <0>        -0.1161
     11 C11         2.6540   -1.6755   -4.5493 C.3       1 <0>         0.2643
     12 H1          2.0807   -2.5841   -4.7334 H         1 <0>         0.0682
     13 C12         2.6551   -0.8029   -5.7827 C.2       1 <0>        -0.5030
     14 C13         3.9457   -0.6667   -6.1634 C.2       1 <0>         0.2668
     15 C14         4.8096   -1.4165   -5.2297 C.2       1 <0>         0.5135
     16 O1          6.0203   -1.4880   -5.3047 O.2       1 <0>        -0.5334
     17 N1          4.0580   -2.0099   -4.2827 N.am      1 <0>        -0.6081
     18 C15         4.5527   -2.8402   -3.1817 C.3       1 <0>         0.1624
     19 C16         4.6023   -4.2806   -3.6218 C.2       1 <0>        -0.1676
     20 C17         5.7206   -4.9564   -3.5270 C.2       1 <0>        -0.1803
     21 O2          4.3772    0.0446   -7.2315 O.3       1 <0>        -0.6525
     22 C18         1.4816   -0.2164   -6.4413 C.2       1 <0>         0.5429
     23 O3          1.3360    0.9931   -6.4626 O.2       1 <0>        -0.4637
     24 C19         0.4852   -1.0855   -7.0729 C.2       1 <0>        -0.2213
     25 C20        -0.6499   -0.7366   -7.7942 C.2       1 <0>        -0.1120
     26 C21        -1.3994   -1.7844   -8.2688 C.2       1 <0>        -0.1781
     27 C22        -0.9958   -3.0547   -8.0110 C.2       1 <0>        -0.2633
     28 S1          0.4177   -2.8663   -7.1229 S.3       1 <0>         0.2210
     29 H2          1.2522    3.0999   -0.6814 H         1 <0>         0.0571
     30 H3         -0.3875    2.7876   -1.2995 H         1 <0>         0.0568
     31 H4         -0.1498    3.2336    0.4072 H         1 <0>         0.0536
     32 H5          0.9200    1.6170    1.9835 H         1 <0>         0.0536
     33 H6          1.4443    0.0193    1.3997 H         1 <0>         0.0548
     34 H7          2.3219    1.4833    0.8949 H         1 <0>         0.0564
     35 H8         -1.6194    0.7326   -0.5909 H         1 <0>         0.0582
     36 H9         -0.8573   -0.4191    0.5321 H         1 <0>         0.0573
     37 H10        -1.3816    1.1786    1.1158 H         1 <0>         0.0534
     38 H11        -0.6874   -0.8397   -1.4408 H         1 <0>         0.1202
     39 H12         0.2664   -2.0696   -3.3489 H         1 <0>         0.1172
     40 H13         3.7565    0.3759   -3.1807 H         1 <0>         0.1160
     41 H14         2.7992    1.6112   -1.2779 H         1 <0>         0.1145
     42 H15         5.5532   -2.5117   -2.9001 H         1 <0>         0.0810
     43 H16         3.8845   -2.7445   -2.3259 H         1 <0>         0.0832
     44 H17         3.7159   -4.7559   -4.0153 H         1 <0>         0.1099
     45 H18         5.7561   -5.9887   -3.8423 H         1 <0>         0.0960
     46 H19         6.6069   -4.4812   -3.1334 H         1 <0>         0.0964
     47 H20        -0.9252    0.2928   -7.9699 H         1 <0>         0.1416
     48 H21        -2.2978   -1.6007   -8.8392 H         1 <0>         0.1265
     49 H22        -1.4722   -3.9760   -8.3120 H         1 <0>         0.1794
@<TRIPOS>BOND
     1    1    2 1
     2    1   29 1
     3    1   30 1
     4    1   31 1
     5    2    3 1
     6    2    4 1
     7    2    5 1
     8    3   32 1
     9    3   33 1
    10    3   34 1
    11    4   35 1
    12    4   36 1
    13    4   37 1
    14    5   10 ar
    15    5    6 ar
    16    6    7 ar
    17    6   38 1
    18    7    8 ar
    19    7   39 1
    20    8    9 ar
    21    8   11 1
    22    9   10 ar
    23    9   40 1
    24   10   41 1
    25   11   12 1
    26   11   17 1
    27   11   13 1
    28   13   14 2
    29   13   22 1
    30   14   15 1
    31   14   21 1
    32   15   16 2
    33   15   17 am
    34   17   18 1
    35   18   19 1
    36   18   42 1
    37   18   43 1
    38   19   20 2
    39   19   44 1
    40   20   45 1
    41   20   46 1
    42   22   23 2
    43   22   24 1
    44   24   28 1
    45   24   25 2
    46   25   26 1
    47   25   47 1
    48   26   27 2
    49   26   48 1
    50   27   28 1
    51   27   49 1
@<TRIPOS>MOLECULE
ZINC05376032
   36    39     0     0     0
SMALL
USER_CHARGES

@<TRIPOS>ATOM
      1 C1          0.1113    1.4682   -1.1784 C.3       1 <0>         0.0833
      2 N1          0.1161    0.0050   -1.1051 N.am      1 <0>        -0.5514
      3 C2         -1.0124   -0.7914   -1.2667 C.ar      1 <0>         0.1441
      4 C3         -2.3410   -0.4698   -1.5189 C.ar      1 <0>        -0.1484
      5 C4         -3.2861   -1.4694   -1.6378 C.ar      1 <0>        -0.0857
      6 C5         -2.9261   -2.8007   -1.5083 C.ar      1 <0>        -0.1507
      7 C6         -1.6124   -3.1409   -1.2578 C.ar      1 <0>        -0.0573
      8 C7         -0.6514   -2.1404   -1.1361 C.ar      1 <0>        -0.0913
      9 C8          0.8030   -2.1612   -0.8763 C.2       1 <0>        -0.0868
     10 C9          1.6045   -3.2648   -0.6793 C.2       1 <0>        -0.0797
     11 C10         1.2326   -4.7026   -0.5282 C.2       1 <0>         0.5313
     12 O1          0.0737   -5.0770   -0.5677 O.2       1 <0>        -0.5141
     13 N2          2.2288   -5.5405   -0.3506 N.2       1 <0>        -0.7057
     14 C11         3.4922   -5.1460   -0.3063 C.2       1 <0>         0.4287
     15 S1          3.3840   -3.3789   -0.5406 S.3       1 <0>        -0.0499
     16 N3          4.6112   -5.9091   -0.1288 N.2       1 <0>        -0.5519
     17 C12         4.5198   -7.3035   -0.1683 C.ar      1 <0>         0.1595
     18 C13         5.4691   -8.0818    0.4821 C.ar      1 <0>        -0.1260
     19 C14         5.3760   -9.4590    0.4418 C.ar      1 <0>        -0.0993
     20 C15         4.3383  -10.0639   -0.2456 C.ar      1 <0>        -0.0755
     21 C16         3.3914   -9.2911   -0.8947 C.ar      1 <0>        -0.0951
     22 C17         3.4762   -7.9134   -0.8530 C.ar      1 <0>        -0.1397
     23 Cl1         4.2245  -11.7955   -0.2941 Cl        1 <0>        -0.0998
     24 C18         1.2126   -0.7384   -0.8788 C.2       1 <0>         0.5565
     25 O2          2.3401   -0.3174   -0.7051 O.2       1 <0>        -0.4894
     26 H1          1.1228    1.8431   -1.0218 H         1 <0>         0.0899
     27 H2         -0.2445    1.7817   -2.1598 H         1 <0>         0.0691
     28 H3         -0.5478    1.8685   -0.4080 H         1 <0>         0.0690
     29 H4         -2.6348    0.5644   -1.6217 H         1 <0>         0.1218
     30 H5         -4.3162   -1.2107   -1.8335 H         1 <0>         0.1254
     31 H6         -3.6747   -3.5734   -1.6031 H         1 <0>         0.1264
     32 H7         -1.3307   -4.1786   -1.1567 H         1 <0>         0.1738
     33 H8          6.2793   -7.6102    1.0183 H         1 <0>         0.1266
     34 H9          6.1140  -10.0645    0.9469 H         1 <0>         0.1240
     35 H10         2.5830   -9.7658   -1.4310 H         1 <0>         0.1211
     36 H11         2.7345   -7.3107   -1.3560 H         1 <0>         0.1473
@<TRIPOS>BOND
     1    1    2 1
     2    1   26 1
     3    1   27 1
     4    1   28 1
     5    2   24 am
     6    2    3 1
     7    3    8 ar
     8    3    4 ar
     9    4    5 ar
    10    4   29 1
    11    5    6 ar
    12    5   30 1
    13    6    7 ar
    14    6   31 1
    15    7    8 ar
    16    7   32 1
    17    8    9 1
    18    9   10 2
    19    9   24 1
    20   10   15 1
    21   10   11 1
    22   11   12 2
    23   11   13 1
    24   13   14 2
    25   14   15 1
    26   14   16 1
    27   16   17 1
    28   17   22 ar
    29   17   18 ar
    30   18   19 ar
    31   18   33 1
    32   19   20 ar
    33   19   34 1
    34   20   21 ar
    35   20   23 1
    36   21   22 ar
    37   21   35 1
    38   22   36 1
    39   24   25 2
@<TRIPOS>MOLECULE
ZINC13619066
   39    41     0     0     0
SMALL
USER_CHARGES

@<TRIPOS>ATOM
      1 C1          1.6275   -0.5570   -2.6843 C.2       1 <0>        -0.1725
      2 C2          0.3665   -0.2740   -2.4696 C.2       1 <0>        -0.1551
      3 C3         -0.6848   -1.3399   -2.6419 C.3       1 <0>         0.0841
      4 O1         -1.5919   -1.2970   -1.5386 O.3       1 <0>        -0.3120
      5 C4         -2.6067   -2.1986   -1.5396 C.ar      1 <0>         0.1298
      6 C5         -2.7214   -3.1110   -2.5823 C.ar      1 <0>        -0.2041
      7 C6         -3.7481   -4.0278   -2.5883 C.ar      1 <0>        -0.0633
      8 C7         -4.6783   -4.0404   -1.5413 C.ar      1 <0>        -0.0966
      9 C8         -4.5578   -3.1189   -0.4934 C.ar      1 <0>        -0.0602
     10 C9         -3.5241   -2.2100   -0.4950 C.ar      1 <0>        -0.1543
     11 C10        -5.7758   -5.0156   -1.5424 C.2       1 <0>        -0.0161
     12 C11        -5.7957   -6.0137   -2.4618 C.2       1 <0>        -0.1894
     13 C12        -6.8534   -7.0072   -2.7614 C.2       1 <0>         0.5312
     14 O2         -7.9109   -7.0255   -2.1519 O.2       1 <0>        -0.5383
     15 N1         -6.5904   -7.8675   -3.7201 N.2       1 <0>        -0.7138
     16 C13        -5.4481   -7.8583   -4.3889 C.2       1 <0>         0.4291
     17 S1         -4.5560   -6.4947   -3.6577 S.3       1 <0>        -0.1119
     18 N2         -5.0486   -8.6909   -5.4017 N.2       1 <0>        -0.5706
     19 C14        -5.9697   -9.5585   -5.9985 C.ar      1 <0>         0.1543
     20 C15        -7.3262   -9.2624   -5.9657 C.ar      1 <0>        -0.1293
     21 C16        -8.2337  -10.1200   -6.5559 C.ar      1 <0>        -0.1351
     22 C17        -7.7920  -11.2747   -7.1797 C.ar      1 <0>         0.0362
     23 C18        -6.4400  -11.5722   -7.2132 C.ar      1 <0>        -0.1389
     24 C19        -5.5285  -10.7143   -6.6297 C.ar      1 <0>        -0.1180
     25 F1         -8.6815  -12.1125   -7.7560 F         1 <0>        -0.1568
     26 H1          2.3809    0.2068   -2.5608 H         1 <0>         0.1071
     27 H2          1.9140   -1.5553   -2.9804 H         1 <0>         0.1005
     28 H3          0.0805    0.7231   -2.1691 H         1 <0>         0.1191
     29 H4         -1.2313   -1.1647   -3.5686 H         1 <0>         0.0738
     30 H5         -0.2069   -2.3187   -2.6815 H         1 <0>         0.0695
     31 H6         -2.0038   -3.1002   -3.3894 H         1 <0>         0.1292
     32 H7         -3.8365   -4.7359   -3.3990 H         1 <0>         0.1457
     33 H8         -5.2723   -3.1242    0.3165 H         1 <0>         0.1347
     34 H9         -3.4279   -1.5017    0.3146 H         1 <0>         0.1314
     35 H10        -6.5672   -4.9386   -0.8116 H         1 <0>         0.1464
     36 H11        -7.6712   -8.3622   -5.4787 H         1 <0>         0.1443
     37 H12        -9.2886   -9.8901   -6.5306 H         1 <0>         0.1209
     38 H13        -6.0977  -12.4737   -7.6996 H         1 <0>         0.1239
     39 H14        -4.4737  -10.9443   -6.6603 H         1 <0>         0.1252
@<TRIPOS>BOND
     1    1    2 2
     2    1   26 1
     3    1   27 1
     4    2    3 1
     5    2   28 1
     6    3    4 1
     7    3   29 1
     8    3   30 1
     9    4    5 1
    10    5   10 ar
    11    5    6 ar
    12    6    7 ar
    13    6   31 1
    14    7    8 ar
    15    7   32 1
    16    8    9 ar
    17    8   11 1
    18    9   10 ar
    19    9   33 1
    20   10   34 1
    21   11   12 2
    22   11   35 1
    23   12   17 1
    24   12   13 1
    25   13   14 2
    26   13   15 1
    27   15   16 2
    28   16   17 1
    29   16   18 1
    30   18   19 1
    31   19   24 ar
    32   19   20 ar
    33   20   21 ar
    34   20   36 1
    35   21   22 ar
    36   21   37 1
    37   22   23 ar
    38   22   25 1
    39   23   24 ar
    40   23   38 1
    41   24   39 1
@<TRIPOS>MOLECULE
ZINC03851378
   60    61     0     0     0
SMALL
USER_CHARGES
5-(2-formyloxy-2,5,5,8a-tetramethyl-decalin-1-yl)-3-methyl-pentanoic acid
@<TRIPOS>ATOM
      1 C1          2.7073   -0.0906    1.9996 C.3       1 <0>        -0.1444
      2 C2          1.8044   -0.2593    0.7760 C.3       1 <0>        -0.0703
      3 H1          2.2561    0.2411   -0.0805 H         1 <0>         0.0639
      4 C3          1.6372   -1.7484    0.4670 C.3       1 <0>        -0.1171
      5 C4          2.9879   -2.3391    0.0578 C.3       1 <0>        -0.1205
      6 C5          2.8198   -3.8358   -0.2529 C.3       1 <0>        -0.0695
      7 H2          2.3627   -4.3073    0.6308 H         1 <0>         0.0815
      8 C6          4.2041   -4.4568   -0.4540 C.3       1 <0>        -0.0295
      9 C7          4.9057   -4.5119    0.9129 C.3       1 <0>        -0.1113
     10 C8          6.2720   -5.1778    0.7643 C.3       1 <0>        -0.1179
     11 C9          6.1031   -6.6136    0.2860 C.3       1 <0>        -0.1067
     12 C10         5.3288   -6.6897   -1.0295 C.3       1 <0>        -0.0463
     13 C11         4.0550   -5.8732   -0.9880 C.3       1 <0>        -0.0608
     14 H3          3.3627   -6.3990   -0.2860 H         1 <0>         0.0629
     15 C12         3.3385   -5.8404   -2.3359 C.3       1 <0>        -0.1063
     16 C13         1.9133   -5.3377   -2.1108 C.3       1 <0>        -0.1489
     17 C14         1.8713   -3.9815   -1.4285 C.3       1 <0>         0.1469
     18 C15         2.0948   -2.8690   -2.4596 C.3       1 <0>        -0.1972
     19 O1          0.5056   -3.8005   -0.9087 O.3       1 <0>        -0.3578
     20 C16        -0.5001   -3.8911   -1.7932 C.2       1 <0>         0.4515
     21 O2         -1.6425   -3.7516   -1.4254 O.2       1 <0>        -0.4816
     22 C17         6.2404   -6.3177   -2.1971 C.3       1 <0>        -0.1460
     23 C18         4.9380   -8.1775   -1.2167 C.3       1 <0>        -0.1496
     24 C19         5.0245   -3.5548   -1.3754 C.3       1 <0>        -0.1610
     25 C20         0.4347    0.3588    1.0639 C.3       1 <0>        -0.1526
     26 C21         0.5838    1.8472    1.2472 C.2       1 <0>         0.4599
     27 O3          1.6737    2.3609    1.1570 O.co2     1 <0>        -0.6389
     28 H4          3.6831   -0.5310    1.7946 H         1 <0>         0.0376
     29 H5          2.8265    0.9702    2.2198 H         1 <0>         0.0787
     30 H6          2.2557   -0.5910    2.8562 H         1 <0>         0.0359
     31 H7          1.2686   -2.2643    1.3536 H         1 <0>         0.0553
     32 H8          0.9244   -1.8724   -0.3483 H         1 <0>         0.0678
     33 H9          3.3565   -1.8232   -0.8288 H         1 <0>         0.0695
     34 H10         3.7007   -2.2151    0.8730 H         1 <0>         0.0709
     35 H11         4.2907   -5.0889    1.6038 H         1 <0>         0.0615
     36 H12         5.0401   -3.5030    1.2992 H         1 <0>         0.0698
     37 H13         6.7610   -5.1897    1.7491 H         1 <0>         0.0556
     38 H14         6.9095   -4.6189    0.0864 H         1 <0>         0.0666
     39 H15         5.5680   -7.1892    1.0479 H         1 <0>         0.0581
     40 H16         7.0891   -7.0674    0.1455 H         1 <0>         0.0583
     41 H17         3.2860   -6.8464   -2.7605 H         1 <0>         0.0684
     42 H18         3.8497   -5.1948   -3.0431 H         1 <0>         0.0718
     43 H19         1.3728   -6.0699   -1.4998 H         1 <0>         0.0739
     44 H20         1.4051   -5.2730   -3.0800 H         1 <0>         0.0687
     45 H21         3.1452   -2.8485   -2.7500 H         1 <0>         0.0864
     46 H22         1.4786   -3.0589   -3.3384 H         1 <0>         0.0583
     47 H23         1.8196   -1.9087   -2.0234 H         1 <0>         0.0869
     48 H24        -0.2881   -4.0887   -2.8335 H         1 <0>         0.1124
     49 H25         6.6426   -5.3170   -2.0396 H         1 <0>         0.0627
     50 H26         7.0604   -7.0331   -2.2601 H         1 <0>         0.0506
     51 H27         5.6688   -6.3377   -3.1250 H         1 <0>         0.0552
     52 H28         4.3860   -8.2935   -2.1493 H         1 <0>         0.0541
     53 H29         5.8400   -8.7886   -1.2499 H         1 <0>         0.0524
     54 H30         4.3133   -8.4967   -0.3825 H         1 <0>         0.0519
     55 H31         4.9859   -2.5292   -1.0085 H         1 <0>         0.0684
     56 H32         6.0595   -3.8964   -1.3909 H         1 <0>         0.0632
     57 H33         4.6133   -3.5956   -2.3841 H         1 <0>         0.0586
     58 H34         0.0219   -0.0797    1.9724 H         1 <0>         0.0600
     59 H35        -0.2360    0.1611    0.2278 H         1 <0>         0.0586
     60 O4         -0.4951    2.6030    1.5054 O.co2     1 <0>        -0.7808
@<TRIPOS>BOND
     1    1    2 1
     2    1   28 1
     3    1   29 1
     4    1   30 1
     5    2    3 1
     6    2    4 1
     7    2   25 1
     8    4    5 1
     9    4   31 1
    10    4   32 1
    11    5    6 1
    12    5   33 1
    13    5   34 1
    14    6    7 1
    15    6   17 1
    16    6    8 1
    17    8   13 1
    18    8    9 1
    19    8   24 1
    20    9   10 1
    21    9   35 1
    22    9   36 1
    23   10   11 1
    24   10   37 1
    25   10   38 1
    26   11   12 1
    27   11   39 1
    28   11   40 1
    29   12   13 1
    30   12   22 1
    31   12   23 1
    32   13   14 1
    33   13   15 1
    34   15   16 1
    35   15   41 1
    36   15   42 1
    37   16   17 1
    38   16   43 1
    39   16   44 1
    40   17   18 1
    41   17   19 1
    42   18   45 1
    43   18   46 1
    44   18   47 1
    45   19   20 1
    46   20   21 2
    47   20   48 1
    48   22   49 1
    49   22   50 1
    50   22   51 1
    51   23   52 1
    52   23   53 1
    53   23   54 1
    54   24   55 1
    55   24   56 1
    56   24   57 1
    57   25   26 1
    58   25   58 1
    59   25   59 1
    60   26   27 2
    61   26   60 1
@<TRIPOS>MOLECULE
ZINC05791219
   50    54     0     0     0
SMALL
USER_CHARGES
benzyl-ethyl-methyl-sulfanyl-BLAHone
@<TRIPOS>ATOM
      1 C1         -3.1210    0.1220    2.7827 C.3       1 <0>        -0.1539
      2 C2         -3.1488    1.6025    2.3975 C.3       1 <0>        -0.1120
      3 C3         -3.5430    1.7393    0.9255 C.3       1 <0>         0.0315
      4 C4         -2.5168    1.0018    0.0628 C.3       1 <0>        -0.0834
      5 C5         -1.2142    1.7489    0.0288 C.ar      1 <0>        -0.0332
      6 C6         -0.0126    1.0761    0.0080 C.ar      1 <0>        -0.1501
      7 C7          1.1775    1.7827    0.0004 C.ar      1 <0>        -0.0856
      8 C8          1.1660    3.1663    0.0145 C.ar      1 <0>        -0.1399
      9 C9         -0.0335    3.8498    0.0278 C.ar      1 <0>         0.0152
     10 C10        -1.2347    3.1490    0.0204 C.ar      1 <0>        -0.0974
     11 C11        -2.5416    3.8265    0.0043 C.2       1 <0>         0.2765
     12 C12        -3.6238    3.1919    0.5573 C.2       1 <0>        -0.2406
     13 C13        -4.7702    3.9630    0.8498 C.2       1 <0>         0.5699
     14 O1         -5.6758    3.5487    1.5517 O.2       1 <0>        -0.5259
     15 N1         -4.8661    5.2290    0.3902 N.am      1 <0>        -0.5086
     16 C14        -3.8506    5.7732   -0.3728 C.2       1 <0>         0.4091
     17 N2         -2.7085    5.0481   -0.6147 N.pl3     1 <0>        -0.4646
     18 C15        -1.9658    5.7540   -1.5187 C.2       1 <0>         0.3961
     19 N3         -2.5404    6.9235   -1.6961 N.2       1 <0>        -0.3297
     20 N4         -3.7232    6.9426   -0.9508 N.2       1 <0>        -0.3342
     21 S1         -0.5014    5.2247   -2.3438 S.3       1 <0>        -0.7465
     22 C16        -6.0548    6.0258    0.7044 C.3       1 <0>         0.1563
     23 C17        -5.8311    6.7753    1.9926 C.ar      1 <0>        -0.1104
     24 C18        -6.1886    6.2003    3.1978 C.ar      1 <0>        -0.0914
     25 C19        -5.9790    6.8858    4.3797 C.ar      1 <0>        -0.1310
     26 C20        -5.4216    8.1506    4.3557 C.ar      1 <0>        -0.1158
     27 C21        -5.0689    8.7277    3.1501 C.ar      1 <0>        -0.1280
     28 C22        -5.2737    8.0401    1.9685 C.ar      1 <0>        -0.0914
     29 C23        -4.8965    1.0535    0.7050 C.3       1 <0>        -0.1509
     30 H1         -2.8376    0.0238    3.8410 H         1 <0>         0.0506
     31 H2         -2.3873   -0.4062    2.1560 H         1 <0>         0.0574
     32 H3         -4.1181   -0.3159    2.6280 H         1 <0>         0.0590
     33 H4         -3.8825    2.1307    3.0242 H         1 <0>         0.0673
     34 H5         -2.1517    2.0404    2.5523 H         1 <0>         0.0605
     35 H6         -2.3401   -0.0007    0.4797 H         1 <0>         0.0897
     36 H7         -2.8998    0.9095   -0.9642 H         1 <0>         0.0791
     37 H8          0.0021   -0.0041    0.0020 H         1 <0>         0.1202
     38 H9          2.1177    1.2525   -0.0178 H         1 <0>         0.1179
     39 H10         2.0973    3.7132    0.0146 H         1 <0>         0.1208
     40 H11        -0.0330    4.9306    0.0619 H         1 <0>         0.1254
     41 H12        -6.2414    6.7424   -0.1091 H         1 <0>         0.1011
     42 H13        -6.9239    5.3604    0.8135 H         1 <0>         0.1073
     43 H14        -6.6282    5.2140    3.2162 H         1 <0>         0.1298
     44 H15        -6.2549    6.4351    5.3216 H         1 <0>         0.1196
     45 H16        -5.2619    8.6880    5.2788 H         1 <0>         0.1183
     46 H17        -4.6337    9.7160    3.1313 H         1 <0>         0.1208
     47 H18        -4.9985    8.4911    1.0266 H         1 <0>         0.1304
     48 H19        -5.1873    1.1474   -0.3517 H         1 <0>         0.0487
     49 H20        -5.6576    1.5322    1.3387 H         1 <0>         0.0857
     50 H21        -4.8156   -0.0111    0.9698 H         1 <0>         0.0605
@<TRIPOS>BOND
     1    1    2 1
     2    1   30 1
     3    1   31 1
     4    1   32 1
     5    2    3 1
     6    2   33 1
     7    2   34 1
     8    3   12 1
     9    3    4 1
    10    3   29 1
    11    4    5 1
    12    4   35 1
    13    4   36 1
    14    5   10 ar
    15    5    6 ar
    16    6    7 ar
    17    6   37 1
    18    7    8 ar
    19    7   38 1
    20    8    9 ar
    21    8   39 1
    22    9   10 ar
    23    9   40 1
    24   10   11 1
    25   11   17 1
    26   11   12 2
    27   12   13 1
    28   13   14 2
    29   13   15 am
    30   15   16 1
    31   15   22 1
    32   16   20 2
    33   16   17 1
    34   17   18 1
    35   18   19 2
    36   18   21 1
    37   19   20 1
    38   22   23 1
    39   22   41 1
    40   22   42 1
    41   23   28 ar
    42   23   24 ar
    43   24   25 ar
    44   24   43 1
    45   25   26 ar
    46   25   44 1
    47   26   27 ar
    48   26   45 1
    49   27   28 ar
    50   27   46 1
    51   28   47 1
    52   29   48 1
    53   29   49 1
    54   29   50 1
@<TRIPOS>MOLECULE
ZINC05560454
   49    52     0     0     0
SMALL
USER_CHARGES

@<TRIPOS>ATOM
      1 C1         -0.9761    1.7139    1.3964 C.3       1 <0>        -0.1435
      2 C2         -0.8586    0.2062    1.1642 C.3       1 <0>        -0.0877
      3 C3         -2.2319   -0.4490    1.3379 C.3       1 <0>        -0.1134
      4 C4         -2.1757   -1.9028    0.8685 C.3       1 <0>        -0.0551
      5 C5         -1.0210   -2.6069    1.5765 C.2       1 <0>        -0.0171
      6 C6         -0.0273   -1.8905    2.1504 C.2       1 <0>        -0.2215
      7 S1          1.0786   -3.0944    2.8429 S.3       1 <0>         0.0308
      8 C7          0.2117   -4.5546    2.3661 C.ar      1 <0>         0.1512
      9 C8         -0.9233   -4.0536    1.6748 C.ar      1 <0>        -0.3055
     10 C9         -1.8390   -5.0121    1.1548 C.ar      1 <0>         0.4946
     11 O1         -2.9541   -4.6462    0.4785 O.3       1 <0>        -0.6582
     12 N1         -1.5342   -6.2858    1.3721 N.ar      1 <0>        -0.6139
     13 C10        -0.4521   -6.6868    2.0290 C.ar      1 <0>         0.4062
     14 N2          0.4448   -5.8372    2.5416 N.ar      1 <0>        -0.5457
     15 C11        -0.2293   -8.1379    2.2029 C.2       1 <0>        -0.0184
     16 C12        -1.1253   -9.0312    1.6935 C.2       1 <0>         0.0308
     17 C13        -0.9948  -10.4580    2.0037 C.ar      1 <0>        -0.1425
     18 C14        -0.5501  -10.8646    3.2693 C.ar      1 <0>        -0.0427
     19 C15        -0.4306  -12.1952    3.5537 C.ar      1 <0>        -0.1986
     20 C16        -0.7498  -13.1473    2.5887 C.ar      1 <0>         0.2250
     21 C17        -1.1917  -12.7483    1.3296 C.ar      1 <0>        -0.2055
     22 C18        -1.3200  -11.4202    1.0376 C.ar      1 <0>        -0.0370
     23 N3         -0.6265  -14.5013    2.8832 N.pl3     1 <0>        -0.6355
     24 C19        -0.2773  -14.9268    4.2409 C.3       1 <0>         0.0909
     25 C20        -0.8458  -15.5018    1.8357 C.3       1 <0>         0.0877
     26 C21         0.9271   -8.6055    2.9061 C.1       1 <0>         0.2828
     27 N4          1.8446   -8.9765    3.4639 N.1       1 <0>        -0.4368
     28 C22         0.1082   -0.3994    2.1914 C.3       1 <0>        -0.0158
     29 H1          0.0050    2.1760    1.2866 H         1 <0>         0.0526
     30 H2         -1.6630    2.1416    0.6661 H         1 <0>         0.0541
     31 H3         -1.3540    1.8983    2.4020 H         1 <0>         0.0538
     32 H4         -0.4863    0.0193    0.1569 H         1 <0>         0.0727
     33 H5         -2.5174   -0.4186    2.3894 H         1 <0>         0.0603
     34 H6         -2.9698    0.0941    0.7474 H         1 <0>         0.0617
     35 H7         -3.1131   -2.4020    1.1138 H         1 <0>         0.0895
     36 H8         -2.0155   -1.9324   -0.2092 H         1 <0>         0.0701
     37 H9         -1.9309   -8.6875    1.0616 H         1 <0>         0.1635
     38 H10        -0.3020  -10.1270    4.0182 H         1 <0>         0.1231
     39 H11        -0.0877  -12.5095    4.5283 H         1 <0>         0.1233
     40 H12        -1.4377  -13.4904    0.5845 H         1 <0>         0.1265
     41 H13        -1.6673  -11.1119    0.0625 H         1 <0>         0.1315
     42 H14        -1.1880  -15.0699    4.8223 H         1 <0>         0.0491
     43 H15         0.2767  -15.8645    4.1966 H         1 <0>         0.0652
     44 H16         0.3394  -14.1625    4.7138 H         1 <0>         0.0710
     45 H17        -1.1836  -15.0066    0.9254 H         1 <0>         0.0805
     46 H18         0.0866  -16.0303    1.6372 H         1 <0>         0.0517
     47 H19        -1.6034  -16.2127    2.1652 H         1 <0>         0.0552
     48 H20         1.1312   -0.1177    1.9419 H         1 <0>         0.0687
     49 H21        -0.1419   -0.0362    3.1882 H         1 <0>         0.0701
@<TRIPOS>BOND
     1    1    2 1
     2    1   29 1
     3    1   30 1
     4    1   31 1
     5    2   28 1
     6    2    3 1
     7    2   32 1
     8    3    4 1
     9    3   33 1
    10    3   34 1
    11    4    5 1
    12    4   35 1
    13    4   36 1
    14    5    9 1
    15    5    6 2
    16    6    7 1
    17    6   28 1
    18    7    8 1
    19    8   14 ar
    20    8    9 ar
    21    9   10 ar
    22   10   11 1
    23   10   12 ar
    24   12   13 ar
    25   13   14 ar
    26   13   15 1
    27   15   16 2
    28   15   26 1
    29   16   17 1
    30   16   37 1
    31   17   22 ar
    32   17   18 ar
    33   18   19 ar
    34   18   38 1
    35   19   20 ar
    36   19   39 1
    37   20   21 ar
    38   20   23 1
    39   21   22 ar
    40   21   40 1
    41   22   41 1
    42   23   24 1
    43   23   25 1
    44   24   42 1
    45   24   43 1
    46   24   44 1
    47   25   45 1
    48   25   46 1
    49   25   47 1
    50   26   27 3
    51   28   48 1
    52   28   49 1
@<TRIPOS>MOLECULE
ZINC40076236
   49    51     0     0     0
SMALL
USER_CHARGES

@<TRIPOS>ATOM
      1 C1         -0.3146    1.5086   -0.2110 C.3       1 <0>        -0.1504
      2 C2         -0.2761   -0.0209   -0.2087 C.3       1 <0>        -0.1206
      3 C3          0.5335   -0.5125   -1.4103 C.3       1 <0>        -0.1374
      4 C4          0.5720   -2.0420   -1.4081 C.3       1 <0>         0.1357
      5 N1          1.3472   -2.5127   -2.5586 N.am      1 <0>        -0.6117
      6 C5          0.8163   -2.8104   -3.8941 C.3       1 <0>         0.2528
      7 H1          0.3698   -1.9157   -4.3279 H         1 <0>         0.0666
      8 C6          1.9953   -3.2583   -4.7260 C.2       1 <0>        -0.5067
      9 C7          3.0821   -3.2119   -3.9203 C.2       1 <0>         0.2641
     10 C8          2.6725   -2.7429   -2.5794 C.2       1 <0>         0.5110
     11 O1          3.4217   -2.5904   -1.6352 O.2       1 <0>        -0.5366
     12 O2          4.3432   -3.5377   -4.2855 O.3       1 <0>        -0.6544
     13 C9          1.9677   -3.6647   -6.1341 C.2       1 <0>         0.5039
     14 O3          2.2236   -4.8139   -6.4407 O.2       1 <0>        -0.4757
     15 C10         1.6288   -2.6780   -7.1819 C.ar      1 <0>        -0.1369
     16 C11         1.4564   -1.3327   -6.8490 C.ar      1 <0>        -0.0638
     17 C12         1.1408   -0.4174   -7.8314 C.ar      1 <0>        -0.1394
     18 C13         0.9945   -0.8297   -9.1444 C.ar      1 <0>        -0.1078
     19 C14         1.1635   -2.1613   -9.4811 C.ar      1 <0>        -0.1387
     20 C15         1.4854   -3.0861   -8.5097 C.ar      1 <0>        -0.0757
     21 C16        -0.2087   -3.9120   -3.8104 C.2       1 <0>        -0.1070
     22 C17        -1.4749   -3.6636   -4.1145 C.2       1 <0>        -0.1439
     23 C18        -2.4580   -4.7670   -4.1439 C.ar      1 <0>        -0.0372
     24 C19        -2.0578   -6.0702   -3.8463 C.ar      1 <0>        -0.1167
     25 C20        -2.9804   -7.0956   -3.8755 C.ar      1 <0>        -0.1166
     26 C21        -4.2997   -6.8341   -4.1993 C.ar      1 <0>        -0.1316
     27 C22        -4.7029   -5.5443   -4.4957 C.ar      1 <0>        -0.1213
     28 C23        -3.7915   -4.5089   -4.4636 C.ar      1 <0>        -0.1167
     29 H2          0.7017    1.8977   -0.1481 H         1 <0>         0.0535
     30 H3         -0.7814    1.8589   -1.1315 H         1 <0>         0.0528
     31 H4         -0.8913    1.8588    0.6450 H         1 <0>         0.0511
     32 H5          0.1908   -0.3713    0.7118 H         1 <0>         0.0619
     33 H6         -1.2923   -0.4100   -0.2716 H         1 <0>         0.0611
     34 H7          0.0666   -0.1621   -2.3309 H         1 <0>         0.0640
     35 H8          1.5497   -0.1234   -1.3474 H         1 <0>         0.0664
     36 H9          1.0388   -2.3924   -0.4875 H         1 <0>         0.0758
     37 H10        -0.4443   -2.4311   -1.4710 H         1 <0>         0.0742
     38 H11         1.5695   -1.0098   -5.8246 H         1 <0>         0.1327
     39 H12         1.0072    0.6232   -7.5754 H         1 <0>         0.1209
     40 H13         0.7470   -0.1090   -9.9097 H         1 <0>         0.1178
     41 H14         1.0476   -2.4764  -10.5076 H         1 <0>         0.1201
     42 H15         1.6214   -4.1242   -8.7746 H         1 <0>         0.1276
     43 H16         0.0882   -4.9037   -3.5027 H         1 <0>         0.1135
     44 H17        -1.7881   -2.6551   -4.3409 H         1 <0>         0.1169
     45 H18        -1.0279   -6.2757   -3.5941 H         1 <0>         0.1260
     46 H19        -2.6718   -8.1047   -3.6454 H         1 <0>         0.1200
     47 H20        -5.0180   -7.6403   -4.2211 H         1 <0>         0.1170
     48 H21        -5.7342   -5.3468   -4.7484 H         1 <0>         0.1184
     49 H22        -4.1086   -3.5017   -4.6901 H         1 <0>         0.1210
@<TRIPOS>BOND
     1    1    2 1
     2    1   29 1
     3    1   30 1
     4    1   31 1
     5    2    3 1
     6    2   32 1
     7    2   33 1
     8    3    4 1
     9    3   34 1
    10    3   35 1
    11    4    5 1
    12    4   36 1
    13    4   37 1
    14    5   10 am
    15    5    6 1
    16    6    7 1
    17    6    8 1
    18    6   21 1
    19    8    9 2
    20    8   13 1
    21    9   10 1
    22    9   12 1
    23   10   11 2
    24   13   14 2
    25   13   15 1
    26   15   20 ar
    27   15   16 ar
    28   16   17 ar
    29   16   38 1
    30   17   18 ar
    31   17   39 1
    32   18   19 ar
    33   18   40 1
    34   19   20 ar
    35   19   41 1
    36   20   42 1
    37   21   22 2
    38   21   43 1
    39   22   23 1
    40   22   44 1
    41   23   28 ar
    42   23   24 ar
    43   24   25 ar
    44   24   45 1
    45   25   26 ar
    46   25   46 1
    47   26   27 ar
    48   26   47 1
    49   27   28 ar
    50   27   48 1
    51   28   49 1
@<TRIPOS>MOLECULE
ZINC05551738
   35    38     0     0     0
SMALL
USER_CHARGES

@<TRIPOS>ATOM
      1 C1          0.5459    0.3786    1.1994 C.ar      1 <0>        -0.0927
      2 C2          1.7250    1.0943    1.1917 C.ar      1 <0>        -0.0735
      3 C3          2.9121    0.4748    0.8398 C.ar      1 <0>        -0.0953
      4 C4          2.9246   -0.8657    0.4939 C.ar      1 <0>        -0.0679
      5 C5          1.7527   -1.5931    0.4979 C.ar      1 <0>        -0.1447
      6 C6          0.5515   -0.9742    0.8514 C.ar      1 <0>         0.1151
      7 N1         -0.6148   -1.6902    0.8574 N.2       1 <0>        -0.4650
      8 C7         -0.8980   -2.4932   -0.1436 C.2       1 <0>         0.3903
      9 N2         -2.0129   -3.2837   -0.3188 N.am      1 <0>        -0.6478
     10 C8         -2.1402   -4.0401   -1.3959 C.2       1 <0>         0.5631
     11 O1         -3.1182   -4.7443   -1.5667 O.2       1 <0>        -0.4786
     12 C9         -1.0434   -3.9913   -2.3813 C.2       1 <0>        -0.2188
     13 C10        -0.9137   -4.6535   -3.5591 C.2       1 <0>         0.0754
     14 C11         0.3470   -4.5789   -4.3085 C.ar      1 <0>        -0.0854
     15 C12         1.5152   -4.1366   -3.6759 C.ar      1 <0>        -0.0784
     16 C13         2.6960   -4.0679   -4.3817 C.ar      1 <0>        -0.0985
     17 C14         2.7336   -4.4358   -5.7203 C.ar      1 <0>         0.0613
     18 C15         1.5733   -4.8776   -6.3580 C.ar      1 <0>         0.0303
     19 C16         0.3864   -4.9552   -5.6564 C.ar      1 <0>        -0.0626
     20 O2          1.8759   -5.1737   -7.6561 O.3       1 <0>        -0.3039
     21 C17         3.1336   -4.5228   -7.9153 C.3       1 <0>         0.2117
     22 O3          3.7589   -4.4570   -6.6202 O.3       1 <0>        -0.3026
     23 S1          0.0647   -2.8196   -1.6114 S.3       1 <0>        -0.0121
     24 Br1         4.5236    1.4643    0.8310 Br        1 <0>        -0.0431
     25 H1         -0.3788    0.8619    1.4780 H         1 <0>         0.1415
     26 H2          1.7221    2.1403    1.4605 H         1 <0>         0.1417
     27 H3          3.8540   -1.3428    0.2201 H         1 <0>         0.1397
     28 H4          1.7638   -2.6387    0.2278 H         1 <0>         0.1388
     29 H5         -2.7110   -3.2855    0.3547 H         1 <0>         0.4257
     30 H6         -1.7377   -5.2352   -3.9452 H         1 <0>         0.1661
     31 H7          1.4904   -3.8491   -2.6352 H         1 <0>         0.1487
     32 H8          3.5960   -3.7262   -3.8923 H         1 <0>         0.1459
     33 H9         -0.5109   -5.3013   -6.1479 H         1 <0>         0.1481
     34 H10         3.7373   -5.1159   -8.6022 H         1 <0>         0.1374
     35 H11         2.9715   -3.5212   -8.3135 H         1 <0>         0.0903
@<TRIPOS>BOND
     1    1    6 ar
     2    1    2 ar
     3    1   25 1
     4    2    3 ar
     5    2   26 1
     6    3    4 ar
     7    3   24 1
     8    4    5 ar
     9    4   27 1
    10    5    6 ar
    11    5   28 1
    12    6    7 1
    13    7    8 2
    14    8   23 1
    15    8    9 1
    16    9   10 am
    17    9   29 1
    18   10   11 2
    19   10   12 1
    20   12   13 2
    21   12   23 1
    22   13   14 1
    23   13   30 1
    24   14   19 ar
    25   14   15 ar
    26   15   16 ar
    27   15   31 1
    28   16   17 ar
    29   16   32 1
    30   17   22 1
    31   17   18 ar
    32   18   19 ar
    33   18   20 1
    34   19   33 1
    35   20   21 1
    36   21   22 1
    37   21   34 1
    38   21   35 1
@<TRIPOS>MOLECULE
ZINC16661256
   42    44     0     0     0
SMALL
USER_CHARGES

@<TRIPOS>ATOM
      1 C1          1.6284   -0.5579   -2.6830 C.2       1 <0>        -0.1722
      2 C2          0.3675   -0.2747   -2.4688 C.2       1 <0>        -0.1553
      3 C3         -0.6841   -1.3403   -2.6413 C.3       1 <0>         0.0840
      4 O1         -1.5915   -1.2971   -1.5383 O.3       1 <0>        -0.3119
      5 C4         -2.6065   -2.1986   -1.5395 C.ar      1 <0>         0.1306
      6 C5         -2.7210   -3.1110   -2.5822 C.ar      1 <0>        -0.2042
      7 C6         -3.7479   -4.0276   -2.5884 C.ar      1 <0>        -0.0626
      8 C7         -4.6784   -4.0399   -1.5416 C.ar      1 <0>        -0.0978
      9 C8         -4.5581   -3.1183   -0.4938 C.ar      1 <0>        -0.0596
     10 C9         -3.5242   -2.2096   -0.4952 C.ar      1 <0>        -0.1544
     11 C10        -5.7761   -5.0148   -1.5430 C.2       1 <0>        -0.0134
     12 C11        -5.7960   -6.0131   -2.4624 C.2       1 <0>        -0.1917
     13 C12        -6.8537   -7.0063   -2.7622 C.2       1 <0>         0.5322
     14 O2         -7.9112   -7.0248   -2.1527 O.2       1 <0>        -0.5364
     15 N1         -6.5909   -7.8664   -3.7212 N.2       1 <0>        -0.7143
     16 C13        -5.4487   -7.8570   -4.3901 C.2       1 <0>         0.4316
     17 S1         -4.5559   -6.4945   -3.6578 S.3       1 <0>        -0.1082
     18 N2         -5.0493   -8.6894   -5.4036 N.2       1 <0>        -0.5723
     19 C14        -5.9699   -9.5559   -6.0003 C.ar      1 <0>         0.1637
     20 C15        -7.3270   -9.2602   -5.9671 C.ar      1 <0>        -0.1257
     21 C16        -8.2336  -10.1180   -6.5577 C.ar      1 <0>        -0.1060
     22 C17        -7.7920  -11.2706   -7.1820 C.ar      1 <0>        -0.1266
     23 C18        -6.4421  -11.5678   -7.2168 C.ar      1 <0>        -0.1725
     24 C19        -5.5294  -10.7114   -6.6325 C.ar      1 <0>        -0.0950
     25 C20        -5.9656  -12.8250   -7.8977 C.3       1 <0>         0.5110
     26 F1         -7.0641  -13.5210   -8.4135 F         1 <0>        -0.1828
     27 F2         -5.0948  -12.4895   -8.9400 F         1 <0>        -0.1813
     28 F3         -5.2955  -13.6316   -6.9716 F         1 <0>        -0.1809
     29 H1          2.3820    0.2058   -2.5593 H         1 <0>         0.1072
     30 H2          1.9148   -1.5563   -2.9789 H         1 <0>         0.1006
     31 H3          0.0815    0.7226   -2.1685 H         1 <0>         0.1192
     32 H4         -1.2302   -1.1651   -3.5682 H         1 <0>         0.0739
     33 H5         -0.2063   -2.3192   -2.6806 H         1 <0>         0.0696
     34 H6         -2.0031   -3.1004   -3.3890 H         1 <0>         0.1294
     35 H7         -3.8362   -4.7358   -3.3990 H         1 <0>         0.1453
     36 H8         -5.2729   -3.1234    0.3158 H         1 <0>         0.1349
     37 H9         -3.4281   -1.5013    0.3143 H         1 <0>         0.1316
     38 H10        -6.5678   -4.9377   -0.8125 H         1 <0>         0.1467
     39 H11        -7.6725   -8.3606   -5.4795 H         1 <0>         0.1435
     40 H12        -9.2887   -9.8889   -6.5320 H         1 <0>         0.1209
     41 H13        -8.5032  -11.9400   -7.6429 H         1 <0>         0.1238
     42 H14        -4.4748  -10.9419   -6.6639 H         1 <0>         0.1254
@<TRIPOS>BOND
     1    1    2 2
     2    1   29 1
     3    1   30 1
     4    2    3 1
     5    2   31 1
     6    3    4 1
     7    3   32 1
     8    3   33 1
     9    4    5 1
    10    5   10 ar
    11    5    6 ar
    12    6    7 ar
    13    6   34 1
    14    7    8 ar
    15    7   35 1
    16    8    9 ar
    17    8   11 1
    18    9   10 ar
    19    9   36 1
    20   10   37 1
    21   11   12 2
    22   11   38 1
    23   12   17 1
    24   12   13 1
    25   13   14 2
    26   13   15 1
    27   15   16 2
    28   16   17 1
    29   16   18 1
    30   18   19 1
    31   19   24 ar
    32   19   20 ar
    33   20   21 ar
    34   20   39 1
    35   21   22 ar
    36   21   40 1
    37   22   23 ar
    38   22   41 1
    39   23   24 ar
    40   23   25 1
    41   24   42 1
    42   25   26 1
    43   25   27 1
    44   25   28 1
@<TRIPOS>MOLECULE
ZINC06855752
   38    40     0     0     0
SMALL
USER_CHARGES
3-(4-isopropylbenzoyl)-2-sulfanyl-quinazolin-4-one
@<TRIPOS>ATOM
      1 C1         -6.0400   -6.2703    0.6916 C.3       1 <0>        -0.1437
      2 C2         -5.1164   -6.7669   -0.4225 C.3       1 <0>        -0.0575
      3 C3         -5.7461   -6.4585   -1.7824 C.3       1 <0>        -0.1442
      4 C4         -3.7833   -6.0720   -0.3169 C.ar      1 <0>        -0.0504
      5 C5         -2.6325   -6.8156   -0.1236 C.ar      1 <0>        -0.1496
      6 C6         -1.4090   -6.1861   -0.0266 C.ar      1 <0>        -0.0573
      7 C7         -1.3335   -4.7950   -0.1235 C.ar      1 <0>        -0.1454
      8 C8         -2.4997   -4.0503   -0.3123 C.ar      1 <0>         0.0159
      9 C9         -3.7158   -4.6934   -0.4143 C.ar      1 <0>        -0.1502
     10 C10        -0.0270   -4.1140   -0.0206 C.2       1 <0>         0.5272
     11 O1          0.9419   -4.5686   -0.5954 O.2       1 <0>        -0.3838
     12 N1          0.0904   -2.9882    0.7110 N.am      1 <0>        -0.5208
     13 C11        -0.9564   -2.5561    1.4516 C.2       1 <0>         0.5475
     14 O2         -2.0088   -3.1664    1.4719 O.3       1 <0>        -0.4939
     15 C12        -0.7759   -1.3238    2.2310 C.ar      1 <0>        -0.2475
     16 C13        -1.7965   -0.8006    3.0238 C.ar      1 <0>        -0.0220
     17 C14        -1.5777    0.3582    3.7355 C.ar      1 <0>        -0.1859
     18 C15        -0.3513    1.0074    3.6693 C.ar      1 <0>        -0.0636
     19 C16         0.6698    0.5084    2.8931 C.ar      1 <0>        -0.1418
     20 C17         0.4730   -0.6659    2.1614 C.ar      1 <0>         0.2065
     21 N2          1.4526   -1.1886    1.3857 N.2       1 <0>        -0.5562
     22 C18         1.2698   -2.2884    0.6992 C.2       1 <0>         0.5091
     23 S1          2.5993   -2.8972   -0.2837 S.2       1 <0>        -0.6860
     24 H1         -5.5873   -6.4920    1.6693 H         1 <0>         0.0563
     25 H2         -7.0130   -6.7776    0.6146 H         1 <0>         0.0547
     26 H3         -6.1837   -5.1843    0.5919 H         1 <0>         0.0582
     27 H4         -4.9573   -7.8506   -0.3212 H         1 <0>         0.0757
     28 H5         -5.0820   -6.8155   -2.5834 H         1 <0>         0.0564
     29 H6         -5.8898   -5.3725   -1.8821 H         1 <0>         0.0578
     30 H7         -6.7191   -6.9658   -1.8594 H         1 <0>         0.0552
     31 H8         -2.6923   -7.8914   -0.0489 H         1 <0>         0.1204
     32 H9         -0.5114   -6.7678    0.1236 H         1 <0>         0.1242
     33 H10        -2.4490   -2.9739   -0.3836 H         1 <0>         0.1154
     34 H11        -4.6179   -4.1191   -0.5655 H         1 <0>         0.1183
     35 H12        -2.7523   -1.3003    3.0793 H         1 <0>         0.1267
     36 H13        -2.3664    0.7655    4.3506 H         1 <0>         0.1207
     37 H14        -0.1972    1.9149    4.2343 H         1 <0>         0.1225
     38 H15         1.6203    1.0196    2.8532 H         1 <0>         0.1311
@<TRIPOS>BOND
     1    1    2 1
     2    1   24 1
     3    1   25 1
     4    1   26 1
     5    2    3 1
     6    2    4 1
     7    2   27 1
     8    3   28 1
     9    3   29 1
    10    3   30 1
    11    4    9 ar
    12    4    5 ar
    13    5    6 ar
    14    5   31 1
    15    6    7 ar
    16    6   32 1
    17    7    8 ar
    18    7   10 1
    19    8    9 ar
    20    8   33 1
    21    9   34 1
    22   10   11 2
    23   10   12 am
    24   12   22 1
    25   12   13 1
    26   13   14 1
    27   13   15 2
    28   15   20 ar
    29   15   16 ar
    30   16   17 ar
    31   16   35 1
    32   17   18 ar
    33   17   36 1
    34   18   19 ar
    35   18   37 1
    36   19   20 ar
    37   19   38 1
    38   20   21 2
    39   21   22 1
    40   22   23 2
@<TRIPOS>MOLECULE
ZINC18057078
   39    43     0     0     0
SMALL
USER_CHARGES

@<TRIPOS>ATOM
      1 C1          0.6033    1.3313    0.4362 C.ar      1 <0>        -0.1053
      2 C2          1.3993    2.0233   -0.4628 C.ar      1 <0>        -0.1268
      3 C3          2.0353    1.3591   -1.4916 C.ar      1 <0>        -0.0718
      4 C4          1.8762   -0.0199   -1.6276 C.ar      1 <0>        -0.1358
      5 C5          1.0677   -0.7224   -0.7136 C.ar      1 <0>        -0.0038
      6 C6          0.4339   -0.0340    0.3175 C.ar      1 <0>        -0.0884
      7 C7          0.9043   -2.1814   -0.8634 C.2       1 <0>         0.3030
      8 N1          0.1487   -2.8542   -0.0140 N.2       1 <0>        -0.5703
      9 C8          0.1065   -4.1973   -0.0696 C.ar      1 <0>         0.1834
     10 C9          1.2827   -4.9602   -0.0542 C.ar      1 <0>        -0.1772
     11 C10         1.2559   -6.3458   -0.1116 C.ar      1 <0>        -0.0622
     12 C11         0.0665   -7.0344   -0.1862 C.ar      1 <0>        -0.1453
     13 C12        -1.1253   -6.3148   -0.2033 C.ar      1 <0>        -0.0528
     14 C13        -1.1703   -4.9121   -0.1421 C.ar      1 <0>        -0.0586
     15 C14        -2.4207   -4.2906   -0.1595 C.ar      1 <0>        -0.0752
     16 C15        -3.5439   -5.0702   -0.2295 C.ar      1 <0>        -0.1424
     17 C16        -3.4799   -6.4626   -0.2835 C.ar      1 <0>        -0.1042
     18 C17        -2.2734   -7.0968   -0.2799 C.ar      1 <0>        -0.0984
     19 C18        -1.8350   -8.5401   -0.3218 C.3       1 <0>        -0.0710
     20 C19        -0.2929   -8.5003   -0.2601 C.3       1 <0>        -0.0660
     21 C20         1.5806   -2.8793   -1.9543 C.2       1 <0>        -0.4303
     22 C21         2.3584   -2.2048   -2.8339 C.2       1 <0>         0.2431
     23 C22         2.5432   -0.7547   -2.7154 C.2       1 <0>         0.3893
     24 O1          3.2453   -0.1605   -3.5140 O.2       1 <0>        -0.4365
     25 O2          2.9749   -2.8794   -3.8382 O.3       1 <0>        -0.6449
     26 H1          0.1149    1.8637    1.2390 H         1 <0>         0.1261
     27 H2          1.5226    3.0911   -0.3575 H         1 <0>         0.1260
     28 H3          2.6536    1.9049   -2.1889 H         1 <0>         0.1340
     29 H4         -0.1878   -0.5661    1.0223 H         1 <0>         0.1408
     30 H5          2.2356   -4.4552    0.0036 H         1 <0>         0.1221
     31 H6          2.1859   -6.8946   -0.0979 H         1 <0>         0.1134
     32 H7         -2.5003   -3.2144   -0.1181 H         1 <0>         0.1268
     33 H8         -4.5117   -4.5912   -0.2430 H         1 <0>         0.1155
     34 H9         -4.3905   -7.0407   -0.3378 H         1 <0>         0.1146
     35 H10        -2.2335   -9.0809    0.5365 H         1 <0>         0.0777
     36 H11        -2.1638   -9.0079   -1.2498 H         1 <0>         0.0785
     37 H12         0.1327   -8.9487   -1.1578 H         1 <0>         0.0760
     38 H13         0.0631   -9.0217    0.6285 H         1 <0>         0.0748
     39 H14         1.4589   -3.9471   -2.0604 H         1 <0>         0.1222
@<TRIPOS>BOND
     1    1    6 ar
     2    1    2 ar
     3    1   26 1
     4    2    3 ar
     5    2   27 1
     6    3    4 ar
     7    3   28 1
     8    4   23 1
     9    4    5 ar
    10    5    6 ar
    11    5    7 1
    12    6   29 1
    13    7    8 2
    14    7   21 1
    15    8    9 1
    16    9   14 ar
    17    9   10 ar
    18   10   11 ar
    19   10   30 1
    20   11   12 ar
    21   11   31 1
    22   12   20 1
    23   12   13 ar
    24   13   18 ar
    25   13   14 ar
    26   14   15 ar
    27   15   16 ar
    28   15   32 1
    29   16   17 ar
    30   16   33 1
    31   17   18 ar
    32   17   34 1
    33   18   19 1
    34   19   20 1
    35   19   35 1
    36   19   36 1
    37   20   37 1
    38   20   38 1
    39   21   22 2
    40   21   39 1
    41   22   23 1
    42   22   25 1
    43   23   24 2
@<TRIPOS>MOLECULE
ZINC45889522
   34    35     0     0     0
SMALL
USER_CHARGES

@<TRIPOS>ATOM
      1 C1         -0.0187    1.5258    0.0104 C.3       1 <0>        -0.1485
      2 C2          0.0021   -0.0041    0.0020 C.3       1 <0>        -0.0941
      3 C3          0.7074   -0.4901   -1.2379 C.ar      1 <0>        -0.0415
      4 C4          2.0213   -0.9030   -1.1648 C.ar      1 <0>        -0.1080
      5 C5          2.6736   -1.3532   -2.3152 C.ar      1 <0>         0.0245
      6 C6          1.9892   -1.3819   -3.5331 C.ar      1 <0>        -0.1074
      7 C7          0.6759   -0.9663   -3.5922 C.ar      1 <0>        -0.0483
      8 C8          0.0333   -0.5264   -2.4468 C.ar      1 <0>        -0.0975
      9 Br1        -1.7706    0.0339   -2.5357 Br        1 <0>        -0.0490
     10 C9         -0.0637   -0.9960   -4.9049 C.3       1 <0>        -0.1233
     11 C10         4.0796   -1.7962   -2.2445 C.2       1 <0>        -0.0071
     12 C11         4.8325   -2.2542   -3.3033 C.2       1 <0>        -0.1686
     13 C12         6.0976   -2.5635   -2.8009 C.2       1 <0>        -0.2052
     14 C13         6.0702   -2.2812   -1.4463 C.2       1 <0>         0.0620
     15 O1          4.8418   -1.8147   -1.1373 O.3       1 <0>        -0.1575
     16 C14         7.1427   -2.4474   -0.5448 C.2       1 <0>        -0.0932
     17 C15         6.9826   -2.1300    0.7701 C.2       1 <0>        -0.1003
     18 C16         8.0520   -2.2958    1.6690 C.2       1 <0>         0.4402
     19 O2          9.2221   -2.7634    1.2339 O.co2     1 <0>        -0.6988
     20 O3          7.8953   -1.9852    2.9559 O.co2     1 <0>        -0.7017
     21 H1          1.0039    1.9031    0.0027 H         1 <0>         0.0572
     22 H2         -0.5459    1.8868   -0.8726 H         1 <0>         0.0600
     23 H3         -0.5289    1.8773    0.9072 H         1 <0>         0.0615
     24 H4          0.5293   -0.3651    0.8851 H         1 <0>         0.0793
     25 H5         -1.0205   -0.3814    0.0098 H         1 <0>         0.0814
     26 H6          2.5447   -0.8780   -0.2205 H         1 <0>         0.1380
     27 H7          2.4878   -1.7285   -4.4262 H         1 <0>         0.1361
     28 H8         -0.5544   -1.9621   -5.0236 H         1 <0>         0.0781
     29 H9         -0.8126   -0.2041   -4.9180 H         1 <0>         0.0769
     30 H10         0.6408   -0.8434   -5.7224 H         1 <0>         0.0728
     31 H11         4.5057   -2.3553   -4.3277 H         1 <0>         0.1509
     32 H12         6.9365   -2.9489   -3.3615 H         1 <0>         0.1563
     33 H13         8.0906   -2.8262   -0.8974 H         1 <0>         0.1609
     34 H14         6.0346   -1.7512    1.1227 H         1 <0>         0.1137
@<TRIPOS>BOND
     1    1    2 1
     2    1   21 1
     3    1   22 1
     4    1   23 1
     5    2    3 1
     6    2   24 1
     7    2   25 1
     8    3    8 ar
     9    3    4 ar
    10    4    5 ar
    11    4   26 1
    12    5    6 ar
    13    5   11 1
    14    6    7 ar
    15    6   27 1
    16    7    8 ar
    17    7   10 1
    18    8    9 1
    19   10   28 1
    20   10   29 1
    21   10   30 1
    22   11   15 1
    23   11   12 2
    24   12   13 1
    25   12   31 1
    26   13   14 2
    27   13   32 1
    28   14   15 1
    29   14   16 1
    30   16   17 2
    31   16   33 1
    32   17   18 1
    33   17   34 1
    34   18   19 2
    35   18   20 1
@<TRIPOS>MOLECULE
ZINC57438685
   34    36     0     0     0
SMALL
USER_CHARGES

@<TRIPOS>ATOM
      1 C1         -2.9395   -3.2846   -2.4576 C.3       1 <0>        -0.1086
      2 C2         -2.4054   -2.4651   -1.3112 C.ar      1 <0>        -0.0788
      3 C3         -2.1992   -1.1068   -1.4702 C.ar      1 <0>        -0.1678
      4 C4         -1.7093   -0.3512   -0.4210 C.ar      1 <0>        -0.1093
      5 C5         -1.4242   -0.9512    0.7900 C.ar      1 <0>        -0.1447
      6 C6         -1.6302   -2.3150    0.9531 C.ar      1 <0>         0.1569
      7 C7         -2.1278   -3.0702   -0.1015 C.ar      1 <0>        -0.1501
      8 N1         -1.3422   -2.9255    2.1773 N.2       1 <0>        -0.5639
      9 C8         -1.0634   -4.2666    2.2255 C.2       1 <0>         0.4266
     10 N2         -0.8347   -5.0948    1.2186 N.2       1 <0>        -0.7085
     11 C9         -0.5767   -6.3711    1.3995 C.2       1 <0>         0.5279
     12 O1         -0.3670   -7.1249    0.4627 O.2       1 <0>        -0.5371
     13 C10        -0.5540   -6.8440    2.8044 C.2       1 <0>        -0.1640
     14 C11        -0.3203   -8.0848    3.2999 C.2       1 <0>        -0.0391
     15 C12        -0.5118   -8.3521    4.7318 C.ar      1 <0>        -0.0308
     16 C13        -1.1057   -7.3870    5.5538 C.ar      1 <0>        -0.0928
     17 C14        -1.2827   -7.6432    6.8960 C.ar      1 <0>        -0.1161
     18 C15        -0.8743   -8.8539    7.4343 C.ar      1 <0>         0.0610
     19 C16        -0.2839   -9.8165    6.6258 C.ar      1 <0>         0.0664
     20 C17        -0.1065   -9.5750    5.2789 C.ar      1 <0>        -0.1129
     21 F1          0.1122  -10.9934    7.1579 F         1 <0>        -0.1311
     22 F2         -1.0511   -9.0981    8.7513 F         1 <0>        -0.1314
     23 S1         -0.9133   -5.3165    3.6625 S.3       1 <0>        -0.1114
     24 H1         -4.0288   -3.2953   -2.4201 H         1 <0>         0.0607
     25 H2         -2.6127   -2.8465   -3.4007 H         1 <0>         0.0575
     26 H3         -2.5633   -4.3048   -2.3813 H         1 <0>         0.0646
     27 H4         -2.4210   -0.6352   -2.4162 H         1 <0>         0.1067
     28 H5         -1.5491    0.7092   -0.5486 H         1 <0>         0.1111
     29 H6         -1.0413   -0.3605    1.6091 H         1 <0>         0.1139
     30 H7         -2.2936   -4.1300    0.0235 H         1 <0>         0.1362
     31 H8          0.0067   -8.8763    2.6418 H         1 <0>         0.1521
     32 H9         -1.4242   -6.4431    5.1367 H         1 <0>         0.1576
     33 H10        -1.7405   -6.8987    7.5305 H         1 <0>         0.1488
     34 H11         0.3480  -10.3257    4.6494 H         1 <0>         0.1503
@<TRIPOS>BOND
     1    1    2 1
     2    1   24 1
     3    1   25 1
     4    1   26 1
     5    2    7 ar
     6    2    3 ar
     7    3    4 ar
     8    3   27 1
     9    4    5 ar
    10    4   28 1
    11    5    6 ar
    12    5   29 1
    13    6    7 ar
    14    6    8 1
    15    7   30 1
    16    8    9 1
    17    9   23 1
    18    9   10 2
    19   10   11 1
    20   11   12 2
    21   11   13 1
    22   13   14 2
    23   13   23 1
    24   14   15 1
    25   14   31 1
    26   15   20 ar
    27   15   16 ar
    28   16   17 ar
    29   16   32 1
    30   17   18 ar
    31   17   33 1
    32   18   19 ar
    33   18   22 1
    34   19   20 ar
    35   19   21 1
    36   20   34 1
@<TRIPOS>MOLECULE
ZINC18054290
   32    34     0     0     0
SMALL
USER_CHARGES

@<TRIPOS>ATOM
      1 C1          0.2370    1.3668    1.8757 C.ar      1 <0>        -0.0940
      2 C2          1.0093    2.1554    1.0412 C.ar      1 <0>        -0.1115
      3 C3          1.8419    1.5724    0.1024 C.ar      1 <0>        -0.0933
      4 C4          1.9073    0.1979   -0.0076 C.ar      1 <0>        -0.0265
      5 C5          1.1299   -0.6043    0.8322 C.ar      1 <0>         0.0970
      6 C6          0.2920   -0.0080    1.7772 C.ar      1 <0>        -0.1513
      7 N1          1.1890   -1.9678    0.7288 N.2       1 <0>        -0.4465
      8 C7          0.0809   -2.6693    0.6501 C.2       1 <0>         0.3625
      9 N2         -1.2175   -2.2141    0.5712 N.am      1 <0>        -0.6870
     10 C8         -2.2268   -3.0652    0.4973 C.2       1 <0>         0.5563
     11 C9         -1.8915   -4.5029    0.5034 C.2       1 <0>        -0.2296
     12 C10        -2.7150   -5.5791    0.4390 C.2       1 <0>         0.0717
     13 C11        -2.1722   -6.9318    0.6251 C.ar      1 <0>        -0.1053
     14 C12        -0.9055   -7.1089    1.1940 C.ar      1 <0>        -0.0639
     15 C13        -0.4027   -8.3802    1.3655 C.ar      1 <0>        -0.1489
     16 C14        -1.1481   -9.4827    0.9757 C.ar      1 <0>         0.1259
     17 C15        -2.4036   -9.3146    0.4111 C.ar      1 <0>        -0.1551
     18 C16        -2.9217   -8.0494    0.2397 C.ar      1 <0>        -0.0490
     19 F1         -0.6488  -10.7264    1.1464 F         1 <0>        -0.1306
     20 S1         -0.1087   -4.4442    0.6114 S.3       1 <0>         0.1016
     21 O1         -3.3794   -2.6808    0.4278 O.2       1 <0>        -0.4844
     22 Cl1         2.9520   -0.5321   -1.1863 Cl        1 <0>        -0.0470
     23 H1         -0.4072    1.8288    2.6092 H         1 <0>         0.1355
     24 H2          0.9617    3.2313    1.1228 H         1 <0>         0.1381
     25 H3          2.4416    2.1940   -0.5459 H         1 <0>         0.1418
     26 H4         -0.3112   -0.6219    2.4296 H         1 <0>         0.1304
     27 H5         -3.7696   -5.4417    0.2509 H         1 <0>         0.1657
     28 H6         -0.3236   -6.2512    1.4973 H         1 <0>         0.1417
     29 H7          0.5745   -8.5184    1.8043 H         1 <0>         0.1465
     30 H8         -2.9785  -10.1776    0.1091 H         1 <0>         0.1457
     31 H9         -3.9015   -7.9200   -0.1957 H         1 <0>         0.1460
     32 H10        -1.3926   -1.2601    0.5702 H         1 <0>         0.4175
@<TRIPOS>BOND
     1    1    6 ar
     2    1    2 ar
     3    1   23 1
     4    2    3 ar
     5    2   24 1
     6    3    4 ar
     7    3   25 1
     8    4    5 ar
     9    4   22 1
    10    5    6 ar
    11    5    7 1
    12    6   26 1
    13    7    8 2
    14    8   20 1
    15    8    9 1
    16    9   10 am
    17    9   32 1
    18   10   11 1
    19   10   21 2
    20   11   12 2
    21   11   20 1
    22   12   13 1
    23   12   27 1
    24   13   18 ar
    25   13   14 ar
    26   14   15 ar
    27   14   28 1
    28   15   16 ar
    29   15   29 1
    30   16   17 ar
    31   16   19 1
    32   17   18 ar
    33   17   30 1
    34   18   31 1
@<TRIPOS>MOLECULE
ZINC05800763
   46    49     0     0     0
SMALL
USER_CHARGES
(5S)-4-benzoyl-5-(2-fluorophenyl)-3-hydroxy-1-(p-tolyl)-5H-pyrrol-2-one
@<TRIPOS>ATOM
      1 C1          3.5753    0.8388    5.7653 C.3       1 <0>        -0.1071
      2 C2          3.5495    1.4355    4.3817 C.ar      1 <0>        -0.1274
      3 C3          4.6105    1.2255    3.5199 C.ar      1 <0>        -0.0900
      4 C4          4.5898    1.7705    2.2512 C.ar      1 <0>        -0.1589
      5 C5          3.5016    2.5303    1.8409 C.ar      1 <0>         0.1863
      6 C6          2.4398    2.7436    2.7110 C.ar      1 <0>        -0.1541
      7 C7          2.4646    2.1914    3.9766 C.ar      1 <0>        -0.0911
      8 N1          3.4777    3.0837    0.5579 N.am      1 <0>        -0.5520
      9 C8          2.4004    3.9036   -0.0090 C.3       1 <0>         0.2632
     10 H1          2.2383    4.7947    0.6152 H         1 <0>         0.0810
     11 C9          2.8347    4.2610   -1.4113 C.2       1 <0>        -0.4936
     12 C10         4.0474    3.6860   -1.6017 C.2       1 <0>         0.2664
     13 C11         4.4380    2.9590   -0.3761 C.2       1 <0>         0.5120
     14 O1          5.4740    2.3404   -0.2325 O.2       1 <0>        -0.5076
     15 O2          4.7831    3.7653   -2.7341 O.3       1 <0>        -0.6428
     16 C12         2.0888    5.0720   -2.3775 C.2       1 <0>         0.5058
     17 O3          1.6592    4.5631   -3.3957 O.2       1 <0>        -0.4708
     18 C13         1.8583    6.5087   -2.1149 C.ar      1 <0>        -0.1347
     19 C14         2.4479    7.1228   -1.0079 C.ar      1 <0>        -0.0612
     20 C15         2.2330    8.4647   -0.7719 C.ar      1 <0>        -0.1377
     21 C16         1.4267    9.1998   -1.6232 C.ar      1 <0>        -0.1061
     22 C17         0.8347    8.5962   -2.7188 C.ar      1 <0>        -0.1382
     23 C18         1.0455    7.2564   -2.9696 C.ar      1 <0>        -0.0743
     24 C19         1.1162    3.1161   -0.0491 C.ar      1 <0>        -0.1078
     25 C20         1.1533    1.7364   -0.1242 C.ar      1 <0>        -0.0701
     26 C21        -0.0245    1.0139   -0.1615 C.ar      1 <0>        -0.1278
     27 C22        -1.2409    1.6704   -0.1290 C.ar      1 <0>        -0.0999
     28 C23        -1.2804    3.0492   -0.0485 C.ar      1 <0>        -0.1552
     29 C24        -0.1011    3.7742   -0.0112 C.ar      1 <0>         0.1025
     30 F1         -0.1386    5.1227    0.0627 F         1 <0>        -0.1346
     31 H2          4.5101    0.2759    5.9045 H         1 <0>         0.0608
     32 H3          2.7175    0.1613    5.8885 H         1 <0>         0.0632
     33 H4          3.5172    1.6437    6.5128 H         1 <0>         0.0631
     34 H5          5.4563    0.6350    3.8396 H         1 <0>         0.1214
     35 H6          5.4186    1.6058    1.5786 H         1 <0>         0.1520
     36 H7          1.5942    3.3373    2.3967 H         1 <0>         0.1217
     37 H8          1.6377    2.3534    4.6521 H         1 <0>         0.1202
     38 H9          3.0737    6.5493   -0.3402 H         1 <0>         0.1299
     39 H10         2.6917    8.9418    0.0816 H         1 <0>         0.1212
     40 H11         1.2584   10.2492   -1.4314 H         1 <0>         0.1182
     41 H12         0.2066    9.1756   -3.3792 H         1 <0>         0.1203
     42 H13         0.5832    6.7866   -3.8252 H         1 <0>         0.1271
     43 H14         2.1029    1.2228   -0.1542 H         1 <0>         0.1237
     44 H15         0.0055   -0.0641   -0.2205 H         1 <0>         0.1247
     45 H16        -2.1605    1.1050   -0.1623 H         1 <0>         0.1274
     46 H17        -2.2307    3.5616   -0.0194 H         1 <0>         0.1312
@<TRIPOS>BOND
     1    1    2 1
     2    1   31 1
     3    1   32 1
     4    1   33 1
     5    2    7 ar
     6    2    3 ar
     7    3    4 ar
     8    3   34 1
     9    4    5 ar
    10    4   35 1
    11    5    6 ar
    12    5    8 1
    13    6    7 ar
    14    6   36 1
    15    7   37 1
    16    8   13 am
    17    8    9 1
    18    9   10 1
    19    9   11 1
    20    9   24 1
    21   11   12 2
    22   11   16 1
    23   12   13 1
    24   12   15 1
    25   13   14 2
    26   16   17 2
    27   16   18 1
    28   18   23 ar
    29   18   19 ar
    30   19   20 ar
    31   19   38 1
    32   20   21 ar
    33   20   39 1
    34   21   22 ar
    35   21   40 1
    36   22   23 ar
    37   22   41 1
    38   23   42 1
    39   24   29 ar
    40   24   25 ar
    41   25   26 ar
    42   25   43 1
    43   26   27 ar
    44   26   44 1
    45   27   28 ar
    46   27   45 1
    47   28   29 ar
    48   28   46 1
    49   29   30 1
@<TRIPOS>MOLECULE
ZINC20901101
   37    39     0     0     0
SMALL
USER_CHARGES
N-(3-chloro-4-methyl-phenyl)-4-methyl-1,1-dioxo-5-phenyl-isothiazol-3-amine
@<TRIPOS>ATOM
      1 C1         -8.3625    3.6787    0.5179 C.3       1 <0>        -0.1015
      2 C2         -6.9123    3.2880    0.3941 C.ar      1 <0>        -0.1350
      3 C3         -6.1671    3.7333   -0.6824 C.ar      1 <0>        -0.0992
      4 C4         -4.8382    3.3768   -0.7993 C.ar      1 <0>        -0.1392
      5 C5         -4.2490    2.5698    0.1660 C.ar      1 <0>         0.1722
      6 C6         -5.0006    2.1190    1.2432 C.ar      1 <0>        -0.1327
      7 C7         -6.3291    2.4839    1.3577 C.ar      1 <0>        -0.0174
      8 Cl1        -7.2683    1.9273    2.7073 Cl        1 <0>        -0.0956
      9 N1         -2.9039    2.2075    0.0502 N.2       1 <0>        -0.5905
     10 C8         -2.1346    2.0350    1.1850 C.2       1 <0>         0.3773
     11 N2         -2.6179    2.3080    2.3645 N.2       1 <0>        -0.9254
     12 S1         -1.3708    1.9673    3.4273 S.o2      1 <0>         2.5192
     13 O1         -1.7597    0.8440    4.2060 O.2       1 <0>        -0.9830
     14 O2         -0.9314    3.1962    3.9894 O.2       1 <0>        -0.9866
     15 C9         -0.1291    1.4237    2.2720 C.2       1 <0>        -0.6207
     16 C10        -0.7750    1.5417    1.0893 C.2       1 <0>         0.0010
     17 C11        -0.1287    1.1933   -0.2267 C.3       1 <0>        -0.1028
     18 C12         1.2453    0.9640    2.5361 C.ar      1 <0>         0.0257
     19 C13         1.7161   -0.2150    1.9512 C.ar      1 <0>        -0.1087
     20 C14         3.0062   -0.6355    2.1979 C.ar      1 <0>        -0.1196
     21 C15         3.8297    0.0999    3.0322 C.ar      1 <0>        -0.1281
     22 C16         3.3686    1.2650    3.6197 C.ar      1 <0>        -0.1154
     23 C17         2.0832    1.7017    3.3773 C.ar      1 <0>        -0.1176
     24 H1         -8.6450    4.3143   -0.3343 H         1 <0>         0.0587
     25 H2         -8.5139    4.2338    1.4554 H         1 <0>         0.0623
     26 H3         -8.9870    2.7732    0.5229 H         1 <0>         0.0617
     27 H4         -6.6253    4.3603   -1.4329 H         1 <0>         0.1185
     28 H5         -4.2571    3.7255   -1.6402 H         1 <0>         0.1186
     29 H6         -4.5467    1.4879    1.9929 H         1 <0>         0.1433
     30 H7          0.8988    0.8429   -0.0492 H         1 <0>         0.0682
     31 H8         -0.1060    2.0843   -0.8713 H         1 <0>         0.0850
     32 H9         -0.7071    0.3984   -0.7202 H         1 <0>         0.0851
     33 H10         1.0729   -0.7925    1.3038 H         1 <0>         0.1250
     34 H11         3.3730   -1.5437    1.7429 H         1 <0>         0.1221
     35 H12         4.8375   -0.2369    3.2255 H         1 <0>         0.1198
     36 H13         4.0172    1.8339    4.2694 H         1 <0>         0.1240
     37 H14         1.7249    2.6114    3.8360 H         1 <0>         0.1315
@<TRIPOS>BOND
     1    1    2 1
     2    1   24 1
     3    1   25 1
     4    1   26 1
     5    2    7 ar
     6    2    3 ar
     7    3    4 ar
     8    3   27 1
     9    4    5 ar
    10    4   28 1
    11    5    6 ar
    12    5    9 1
    13    6    7 ar
    14    6   29 1
    15    7    8 1
    16    9   10 1
    17   10   16 1
    18   10   11 2
    19   11   12 1
    20   12   13 2
    21   12   14 2
    22   12   15 1
    23   15   16 2
    24   15   18 1
    25   16   17 1
    26   17   30 1
    27   17   31 1
    28   17   32 1
    29   18   23 ar
    30   18   19 ar
    31   19   20 ar
    32   19   33 1
    33   20   21 ar
    34   20   34 1
    35   21   22 ar
    36   21   35 1
    37   22   23 ar
    38   22   36 1
    39   23   37 1
@<TRIPOS>MOLECULE
ZINC06472811
   42    44     0     0     0
SMALL
USER_CHARGES

@<TRIPOS>ATOM
      1 C1         -0.0187    1.5258    0.0104 C.3       1 <0>        -0.1729
      2 C2          0.0021   -0.0041    0.0020 C.3       1 <0>         0.1199
      3 N1          0.6878   -0.4765   -1.2033 N.pl3     1 <0>        -0.6291
      4 C3          2.1353   -0.7012   -1.1821 C.3       1 <0>         0.1201
      5 C4          2.4212   -2.1448   -0.7635 C.3       1 <0>        -0.1730
      6 C5         -0.0379   -0.7126   -2.3718 C.ar      1 <0>         0.2144
      7 C6         -1.4109   -0.4933   -2.3920 C.ar      1 <0>        -0.1955
      8 C7         -2.1303   -0.7250   -3.5442 C.ar      1 <0>        -0.0390
      9 C8         -1.4789   -1.1804   -4.6925 C.ar      1 <0>        -0.0437
     10 C9         -0.1000   -1.3996   -4.6689 C.ar      1 <0>        -0.0669
     11 C10         0.6144   -1.1610   -3.5150 C.ar      1 <0>        -0.1912
     12 C11        -2.2473   -1.4303   -5.9296 C.2       1 <0>         0.1702
     13 N2         -3.5526   -1.5306   -6.0312 N.2       1 <0>        -0.2811
     14 N3         -3.8834   -1.7500   -7.2533 N.2       1 <0>        -0.3404
     15 C12        -2.8108   -1.8039   -8.0100 C.2       1 <0>         0.3808
     16 N4         -1.7301   -1.5964   -7.1959 N.pl3     1 <0>        -0.4570
     17 C13        -0.3799   -1.5631   -7.5712 C.ar      1 <0>         0.1594
     18 C14         0.3497   -0.3893   -7.4402 C.ar      1 <0>        -0.1092
     19 C15         1.6799   -0.3596   -7.8109 C.ar      1 <0>        -0.1142
     20 C16         2.2850   -1.4975   -8.3120 C.ar      1 <0>        -0.1215
     21 C17         1.5608   -2.6680   -8.4441 C.ar      1 <0>        -0.1105
     22 C18         0.2319   -2.7055   -8.0693 C.ar      1 <0>        -0.0881
     23 S1         -2.7712   -2.0838   -9.7492 S.3       1 <0>        -0.7966
     24 H1          1.0039    1.9031    0.0027 H         1 <0>         0.0535
     25 H2         -0.5459    1.8868   -0.8726 H         1 <0>         0.0606
     26 H3         -0.5289    1.8773    0.9072 H         1 <0>         0.0612
     27 H4          0.5293   -0.3651    0.8851 H         1 <0>         0.0693
     28 H5         -1.0205   -0.3814    0.0098 H         1 <0>         0.0759
     29 H6          2.5453   -0.5232   -2.1762 H         1 <0>         0.0753
     30 H7          2.5986   -0.0180   -0.4703 H         1 <0>         0.0694
     31 H8          3.4982   -2.3119   -0.7477 H         1 <0>         0.0611
     32 H9          2.0113   -2.3228    0.2307 H         1 <0>         0.0539
     33 H10         1.9579   -2.8280   -1.4752 H         1 <0>         0.0603
     34 H11        -1.9141   -0.1414   -1.5035 H         1 <0>         0.1233
     35 H12        -3.1967   -0.5549   -3.5591 H         1 <0>         0.1318
     36 H13         0.4066   -1.7518   -5.5553 H         1 <0>         0.1251
     37 H14         1.6815   -1.3264   -3.4973 H         1 <0>         0.1213
     38 H15        -0.1224    0.4999   -7.0492 H         1 <0>         0.1220
     39 H16         2.2479    0.5534   -7.7096 H         1 <0>         0.1250
     40 H17         3.3253   -1.4719   -8.6012 H         1 <0>         0.1226
     41 H18         2.0359   -3.5551   -8.8361 H         1 <0>         0.1262
     42 H19        -0.3319   -3.6214   -8.1678 H         1 <0>         0.1269
@<TRIPOS>BOND
     1    1    2 1
     2    1   24 1
     3    1   25 1
     4    1   26 1
     5    2    3 1
     6    2   27 1
     7    2   28 1
     8    3    4 1
     9    3    6 1
    10    4    5 1
    11    4   29 1
    12    4   30 1
    13    5   31 1
    14    5   32 1
    15    5   33 1
    16    6   11 ar
    17    6    7 ar
    18    7    8 ar
    19    7   34 1
    20    8    9 ar
    21    8   35 1
    22    9   10 ar
    23    9   12 1
    24   10   11 ar
    25   10   36 1
    26   11   37 1
    27   12   16 1
    28   12   13 2
    29   13   14 1
    30   14   15 2
    31   15   23 1
    32   15   16 1
    33   16   17 1
    34   17   22 ar
    35   17   18 ar
    36   18   19 ar
    37   18   38 1
    38   19   20 ar
    39   19   39 1
    40   20   21 ar
    41   20   40 1
    42   21   22 ar
    43   21   41 1
    44   22   42 1
@<TRIPOS>MOLECULE
ZINC02712786
   37    38     0     0     0
SMALL
USER_CHARGES

@<TRIPOS>ATOM
      1 C1         -1.1809    1.3911    0.8233 C.3       1 <0>        -0.1054
      2 C2         -1.0424   -0.1071    0.7380 C.ar      1 <0>        -0.1284
      3 C3         -0.5961   -0.6918   -0.4344 C.ar      1 <0>        -0.0971
      4 C4         -0.4665   -2.0621   -0.5195 C.ar      1 <0>        -0.1744
      5 C5         -0.7869   -2.8604    0.5814 C.ar      1 <0>         0.1403
      6 C6         -1.2367   -2.2635    1.7612 C.ar      1 <0>        -0.1240
      7 C7         -1.3565   -0.8911    1.8338 C.ar      1 <0>        -0.0744
      8 C8         -1.8361   -0.2447    3.1078 C.3       1 <0>        -0.1108
      9 N1         -0.6612   -4.2206    0.5038 N.2       1 <0>        -0.5679
     10 C9         -1.1014   -4.8590   -0.5492 C.2       1 <0>         0.2836
     11 C10        -0.9670   -6.3130   -0.6321 C.2       1 <0>        -0.4312
     12 C11        -1.4392   -6.9977   -1.7615 C.2       1 <0>         0.4302
     13 O1         -2.1416   -6.3373   -2.7066 O.3       1 <0>        -0.5950
     14 C12        -1.1796   -8.3789   -1.9102 C.2       1 <0>         0.0068
     15 C13        -2.1128   -9.3569   -2.1976 C.2       1 <0>        -0.1784
     16 C14        -1.4143  -10.5703   -2.2515 C.2       1 <0>        -0.2235
     17 C15        -0.1133  -10.2954   -2.0013 C.2       1 <0>        -0.0358
     18 O2          0.0253   -8.9784   -1.8026 O.3       1 <0>        -0.1360
     19 C16        -0.3620   -7.0273    0.4247 C.2       1 <0>         0.3775
     20 O3         -0.2913   -8.2392    0.3766 O.2       1 <0>        -0.4764
     21 C17         0.1962   -6.2866    1.6125 C.3       1 <0>         0.4404
     22 F1          0.7396   -7.2023    2.5199 F         1 <0>        -0.1969
     23 F2          1.1949   -5.4050    1.1851 F         1 <0>        -0.1692
     24 F3         -0.8277   -5.5647    2.2351 F         1 <0>        -0.1636
     25 H1         -0.2433    1.8233    1.1730 H         1 <0>         0.0611
     26 H2         -1.4199    1.7906   -0.1622 H         1 <0>         0.0588
     27 H3         -1.9796    1.6430    1.5210 H         1 <0>         0.0620
     28 H4         -0.3491   -0.0734   -1.2847 H         1 <0>         0.1136
     29 H5         -0.1185   -2.5171   -1.4351 H         1 <0>         0.1168
     30 H6         -1.4861   -2.8746    2.6161 H         1 <0>         0.1214
     31 H7         -2.9226   -0.1602    3.0857 H         1 <0>         0.0656
     32 H8         -1.5365   -0.8548    3.9600 H         1 <0>         0.0631
     33 H9         -1.3963    0.7484    3.1994 H         1 <0>         0.0641
     34 H10        -1.5642   -4.3126   -1.3577 H         1 <0>         0.0990
     35 H11        -3.1724   -9.2140   -2.3502 H         1 <0>         0.1454
     36 H12        -1.8358  -11.5437   -2.4545 H         1 <0>         0.1430
     37 H13         0.6860  -11.0212   -1.9712 H         1 <0>         0.1953
@<TRIPOS>BOND
     1    1    2 1
     2    1   25 1
     3    1   26 1
     4    1   27 1
     5    2    7 ar
     6    2    3 ar
     7    3    4 ar
     8    3   28 1
     9    4    5 ar
    10    4   29 1
    11    5    6 ar
    12    5    9 1
    13    6    7 ar
    14    6   30 1
    15    7    8 1
    16    8   31 1
    17    8   32 1
    18    8   33 1
    19    9   10 2
    20   10   34 1
    21   10   11 1
    22   11   12 2
    23   11   19 1
    24   12   13 1
    25   12   14 1
    26   14   18 1
    27   14   15 2
    28   15   16 1
    29   15   35 1
    30   16   17 2
    31   16   36 1
    32   17   18 1
    33   17   37 1
    34   19   20 2
    35   19   21 1
    36   21   22 1
    37   21   23 1
    38   21   24 1
@<TRIPOS>MOLECULE
ZINC62326882
   42    43     0     0     0
SMALL
USER_CHARGES

@<TRIPOS>ATOM
      1 C1         -0.0187    1.5258    0.0104 C.3       1 <0>        -0.1450
      2 C2          0.0021   -0.0041    0.0020 C.3       1 <0>        -0.0918
      3 C3          0.7421   -0.5109    1.2415 C.3       1 <0>        -0.1524
      4 C4         -1.4333   -0.5336    0.0129 C.3       1 <0>        -0.0987
      5 C5         -1.4157   -2.0577   -0.1212 C.3       1 <0>        -0.0983
      6 S1         -3.1175   -2.6855   -0.1083 S.3       1 <0>        -0.0653
      7 C6         -2.9294   -4.4301   -0.2685 C.2       1 <0>         0.4663
      8 N1         -1.7225   -4.8907   -0.3516 N.2       1 <0>        -1.0318
      9 S2         -1.4408   -6.5165   -0.5149 S.o2      1 <0>         2.6327
     10 O1         -1.1164   -7.0085    0.7781 O.2       1 <0>        -1.0013
     11 O2         -0.5767   -6.6730   -1.6320 O.2       1 <0>        -0.9955
     12 C7         -2.9901   -7.2335   -0.9586 C.ar      1 <0>        -0.7632
     13 C8         -3.0585   -8.5174   -1.4518 C.ar      1 <0>         0.0094
     14 C9         -4.2856   -9.0579   -1.7954 C.ar      1 <0>        -0.1634
     15 C10        -5.4383   -8.3090   -1.6440 C.ar      1 <0>        -0.0495
     16 C11        -5.3732   -7.0217   -1.1490 C.ar      1 <0>        -0.1585
     17 C12        -4.1442   -6.4743   -0.8005 C.ar      1 <0>         0.2710
     18 N2         -4.0659   -5.1803   -0.2889 N.2       1 <0>        -0.6916
     19 C13        -4.3654  -10.4627   -2.3351 C.3       1 <0>        -0.0465
     20 C14        -5.2406  -11.3143   -1.4133 C.3       1 <0>        -0.1418
     21 C15        -4.9765  -10.4363   -3.7375 C.3       1 <0>        -0.1415
     22 H1          1.0039    1.9031    0.0027 H         1 <0>         0.0526
     23 H2         -0.5459    1.8868   -0.8726 H         1 <0>         0.0537
     24 H3         -0.5289    1.8773    0.9072 H         1 <0>         0.0538
     25 H4          0.5123   -0.3556   -0.8948 H         1 <0>         0.0723
     26 H5          1.7647   -0.1336    1.2338 H         1 <0>         0.0512
     27 H6          0.2319   -0.1594    2.1383 H         1 <0>         0.0541
     28 H7          0.7568   -1.6008    1.2356 H         1 <0>         0.0618
     29 H8         -1.9156   -0.2570    0.9504 H         1 <0>         0.0699
     30 H9         -1.9862   -0.1019   -0.8214 H         1 <0>         0.0694
     31 H10        -0.9334   -2.3344   -1.0587 H         1 <0>         0.0889
     32 H11        -0.8628   -2.4894    0.7131 H         1 <0>         0.0916
     33 H12        -2.1573   -9.1007   -1.5705 H         1 <0>         0.1107
     34 H13        -6.3941   -8.7330   -1.9146 H         1 <0>         0.1148
     35 H14        -6.2763   -6.4410   -1.0323 H         1 <0>         0.1221
     36 H15        -3.3641  -10.8909   -2.3831 H         1 <0>         0.0706
     37 H16        -6.2418  -10.8861   -1.3653 H         1 <0>         0.0543
     38 H17        -5.2983  -12.3303   -1.8037 H         1 <0>         0.0508
     39 H18        -4.8052  -11.3331   -0.4142 H         1 <0>         0.0544
     40 H19        -5.0342  -11.4524   -4.1279 H         1 <0>         0.0508
     41 H20        -5.9777  -10.0081   -3.6895 H         1 <0>         0.0542
     42 H21        -4.3530   -9.8297   -4.3942 H         1 <0>         0.0545
@<TRIPOS>BOND
     1    1    2 1
     2    1   22 1
     3    1   23 1
     4    1   24 1
     5    2    3 1
     6    2    4 1
     7    2   25 1
     8    3   26 1
     9    3   27 1
    10    3   28 1
    11    4    5 1
    12    4   29 1
    13    4   30 1
    14    5    6 1
    15    5   31 1
    16    5   32 1
    17    6    7 1
    18    7   18 1
    19    7    8 2
    20    8    9 1
    21    9   10 2
    22    9   11 2
    23    9   12 1
    24   12   17 ar
    25   12   13 ar
    26   13   14 ar
    27   13   33 1
    28   14   15 ar
    29   14   19 1
    30   15   16 ar
    31   15   34 1
    32   16   17 ar
    33   16   35 1
    34   17   18 1
    35   19   20 1
    36   19   21 1
    37   19   36 1
    38   20   37 1
    39   20   38 1
    40   20   39 1
    41   21   40 1
    42   21   41 1
    43   21   42 1
@<TRIPOS>MOLECULE
ZINC01719215
   18    18     0     0     0
SMALL
USER_CHARGES
2-(2,3,4,5,6-pentachlorophenoxy)acetic acid
@<TRIPOS>ATOM
      1 C1         -0.0173    1.4248    0.0099 C.3       1 <0>         0.0262
      2 C2         -0.7227    1.9108    1.2498 C.2       1 <0>         0.4741
      3 O1         -1.1636    1.1152    2.0451 O.co2     1 <0>        -0.6083
      4 O2          0.0021   -0.0041    0.0020 O.3       1 <0>        -0.2843
      5 C3          0.6061   -0.6074   -1.0562 C.ar      1 <0>         0.1595
      6 C4         -0.1325   -0.9317   -2.1854 C.ar      1 <0>        -0.0399
      7 C5          0.4851   -1.5401   -3.2639 C.ar      1 <0>        -0.0041
      8 C6          1.8366   -1.8359   -3.2122 C.ar      1 <0>        -0.0274
      9 C7          2.5737   -1.5187   -2.0840 C.ar      1 <0>        -0.0041
     10 C8          1.9606   -0.9047   -1.0061 C.ar      1 <0>        -0.0400
     11 Cl1         2.8853   -0.5071    0.4083 Cl        1 <0>         0.0014
     12 Cl2         4.2682   -1.8908   -2.0218 Cl        1 <0>        -0.0100
     13 Cl3         2.6081   -2.6052   -4.5638 Cl        1 <0>        -0.0121
     14 Cl4        -0.4366   -1.9385   -4.6800 Cl        1 <0>        -0.0100
     15 Cl5        -1.8287   -0.5674   -2.2479 Cl        1 <0>         0.0014
     16 H1          1.0053    1.8021    0.0021 H         1 <0>         0.0646
     17 H2         -0.5445    1.7859   -0.8732 H         1 <0>         0.0646
     18 O3         -0.8612    3.2275    1.4706 O.co2     1 <0>        -0.7515
@<TRIPOS>BOND
     1    1    2 1
     2    1    4 1
     3    1   16 1
     4    1   17 1
     5    2    3 2
     6    2   18 1
     7    4    5 1
     8    5   10 ar
     9    5    6 ar
    10    6    7 ar
    11    6   15 1
    12    7    8 ar
    13    7   14 1
    14    8    9 ar
    15    8   13 1
    16    9   10 ar
    17    9   12 1
    18   10   11 1
@<TRIPOS>MOLECULE
ZINC20900883
   46    48     0     0     0
SMALL
USER_CHARGES
5-(3,4-dimethylphenyl)-N-(3,5-dimethylphenyl)-4-methyl-1,1-dioxo-isothiazol-3-amine
@<TRIPOS>ATOM
      1 C1         -4.0682   13.4240   -0.6850 C.3       1 <0>        -0.1103
      2 C2         -3.6680   11.9757   -0.5689 C.ar      1 <0>        -0.0961
      3 C3         -2.3283   11.6351   -0.4974 C.ar      1 <0>        -0.1154
      4 C4         -1.9547   10.3126   -0.3856 C.ar      1 <0>        -0.1287
      5 C5         -2.9324    9.3138   -0.3559 C.ar      1 <0>         0.0292
      6 C6         -4.2831    9.6656   -0.4281 C.ar      1 <0>        -0.1100
      7 C7         -4.6417   10.9932   -0.5338 C.ar      1 <0>        -0.0823
      8 C8         -6.0975   11.3747   -0.6118 C.3       1 <0>        -0.1150
      9 C9         -2.5413    7.8982   -0.2429 C.2       1 <0>        -0.6207
     10 C10        -1.3024    7.3610   -0.1616 C.2       1 <0>        -0.0037
     11 C11        -1.2714    5.9154   -0.0597 C.2       1 <0>         0.3739
     12 N1         -2.4013    5.2653   -0.0598 N.2       1 <0>        -0.9253
     13 S1         -3.5769    6.4506   -0.1786 S.o2      1 <0>         2.5160
     14 O1         -4.2911    6.4830    1.0495 O.2       1 <0>        -0.9890
     15 O2         -4.2035    6.3094   -1.4461 O.2       1 <0>        -0.9870
     16 N2         -0.0691    5.2402    0.0299 N.2       1 <0>        -0.5909
     17 C12        -0.0488    3.8427    0.0067 C.ar      1 <0>         0.1660
     18 C13        -0.9891    3.1453   -0.7411 C.ar      1 <0>        -0.1450
     19 C14        -0.9660    1.7646   -0.7623 C.ar      1 <0>        -0.0796
     20 C15        -0.0082    1.0764   -0.0401 C.ar      1 <0>        -0.1685
     21 C16         0.9260    1.7675    0.7095 C.ar      1 <0>        -0.0836
     22 C17         0.9118    3.1483    0.7309 C.ar      1 <0>        -0.1465
     23 C18         1.9640    1.0131    1.4998 C.3       1 <0>        -0.1052
     24 C19        -1.9853    1.0072   -1.5736 C.3       1 <0>        -0.1088
     25 C20        -0.0511    8.2007   -0.1755 C.3       1 <0>        -0.1142
     26 H1         -3.1664   14.0537   -0.6978 H         1 <0>         0.0621
     27 H2         -4.6966   13.7008    0.1744 H         1 <0>         0.0672
     28 H3         -4.6338   13.5746   -1.6164 H         1 <0>         0.0671
     29 H4         -1.5740   12.4075   -0.5246 H         1 <0>         0.1220
     30 H5         -0.9091   10.0486   -0.3257 H         1 <0>         0.1403
     31 H6         -5.0442    8.8997   -0.4016 H         1 <0>         0.1181
     32 H7         -6.7172   10.4669   -0.5695 H         1 <0>         0.0665
     33 H8         -6.2875   11.9047   -1.5568 H         1 <0>         0.0693
     34 H9         -6.3504   12.0310    0.2340 H         1 <0>         0.0693
     35 H10        -1.7371    3.6822   -1.3055 H         1 <0>         0.1322
     36 H11         0.0074   -0.0033   -0.0581 H         1 <0>         0.1040
     37 H12         1.6444    3.6875    1.3130 H         1 <0>         0.1104
     38 H13         2.6135    1.7271    2.0275 H         1 <0>         0.0583
     39 H14         2.5711    0.4006    0.8169 H         1 <0>         0.0596
     40 H15         1.4651    0.3610    2.2318 H         1 <0>         0.0598
     41 H16        -1.8089   -0.0734   -1.4675 H         1 <0>         0.0547
     42 H17        -1.8955    1.2912   -2.6325 H         1 <0>         0.0609
     43 H18        -2.9955    1.2510   -1.2130 H         1 <0>         0.0649
     44 H19         0.8301    7.5468   -0.0988 H         1 <0>         0.0938
     45 H20        -0.0668    8.8963    0.6765 H         1 <0>         0.0803
     46 H21        -0.0033    8.7719   -1.1144 H         1 <0>         0.0797
@<TRIPOS>BOND
     1    1    2 1
     2    1   26 1
     3    1   27 1
     4    1   28 1
     5    2    7 ar
     6    2    3 ar
     7    3    4 ar
     8    3   29 1
     9    4    5 ar
    10    4   30 1
    11    5    6 ar
    12    5    9 1
    13    6    7 ar
    14    6   31 1
    15    7    8 1
    16    8   32 1
    17    8   33 1
    18    8   34 1
    19    9   13 1
    20    9   10 2
    21   10   11 1
    22   10   25 1
    23   11   12 2
    24   11   16 1
    25   12   13 1
    26   13   14 2
    27   13   15 2
    28   16   17 1
    29   17   22 ar
    30   17   18 ar
    31   18   19 ar
    32   18   35 1
    33   19   20 ar
    34   19   24 1
    35   20   21 ar
    36   20   36 1
    37   21   22 ar
    38   21   23 1
    39   22   37 1
    40   23   38 1
    41   23   39 1
    42   23   40 1
    43   24   41 1
    44   24   42 1
    45   24   43 1
    46   25   44 1
    47   25   45 1
    48   25   46 1
@<TRIPOS>MOLECULE
ZINC06533836
   38    41     0     0     0
SMALL
USER_CHARGES

@<TRIPOS>ATOM
      1 C1         -0.0184    1.5028    0.0103 C.3       1 <0>        -0.1127
      2 C2          0.0021   -0.0041    0.0020 C.ar      1 <0>        -0.0962
      3 C3          0.0057   -0.6887   -1.1989 C.ar      1 <0>        -0.1176
      4 C4          0.0245   -2.0709   -1.2065 C.ar      1 <0>        -0.1079
      5 C5          0.0400   -2.7685   -0.0132 C.ar      1 <0>        -0.0474
      6 C6          0.0373   -2.0839    1.1877 C.ar      1 <0>        -0.1161
      7 C7          0.0229   -0.7016    1.1953 C.ar      1 <0>        -0.1176
      8 C8          0.0595   -4.2753   -0.0215 C.3       1 <0>        -0.1038
      9 H1         -0.3640   -4.7461   -0.9087 H         1 <0>         0.1171
     10 C9         -0.1303   -4.9916    1.3171 C.3       1 <0>        -0.1442
     11 C10         1.2465   -4.9702    0.6485 C.3       1 <0>        -0.0459
     12 H2          2.0134   -4.3375    1.0953 H         1 <0>         0.1145
     13 C11         1.7404   -6.2534    0.0316 C.2       1 <0>         0.1554
     14 N1          1.0499   -7.3456   -0.1362 N.2       1 <0>        -0.2853
     15 N2          1.7768   -8.2479   -0.6921 N.2       1 <0>        -0.3413
     16 C12         2.9828   -7.7778   -0.9121 C.2       1 <0>         0.3799
     17 S1          4.3263   -8.6440   -1.6534 S.3       1 <0>        -0.7941
     18 N3          2.9968   -6.4860   -0.4621 N.pl3     1 <0>        -0.4565
     19 C13         4.0737   -5.5883   -0.4961 C.ar      1 <0>         0.1712
     20 C14         3.9955   -4.4374   -1.2689 C.ar      1 <0>        -0.1038
     21 C15         5.0570   -3.5545   -1.3006 C.ar      1 <0>        -0.1000
     22 C16         6.1978   -3.8154   -0.5639 C.ar      1 <0>        -0.1116
     23 C17         6.2793   -4.9616    0.2070 C.ar      1 <0>        -0.0233
     24 C18         5.2170   -5.8457    0.2470 C.ar      1 <0>        -0.0767
     25 Cl1         7.7135   -5.2864    1.1296 Cl        1 <0>        -0.0698
     26 H3          1.0042    1.8801    0.0026 H         1 <0>         0.0681
     27 H4         -0.5455    1.8639   -0.8728 H         1 <0>         0.0639
     28 H5         -0.5286    1.8543    0.9071 H         1 <0>         0.0637
     29 H6         -0.0064   -0.1436   -2.1312 H         1 <0>         0.1199
     30 H7          0.0266   -2.6057   -2.1448 H         1 <0>         0.1217
     31 H8          0.0491   -2.6289    2.1200 H         1 <0>         0.1242
     32 H9          0.0245   -0.1667    2.1335 H         1 <0>         0.1195
     33 H10        -0.2693   -4.3730    2.2037 H         1 <0>         0.1019
     34 H11        -0.6784   -5.9338    1.3104 H         1 <0>         0.1136
     35 H12         3.1053   -4.2330   -1.8453 H         1 <0>         0.1290
     36 H13         4.9962   -2.6593   -1.9018 H         1 <0>         0.1361
     37 H14         7.0267   -3.1236   -0.5906 H         1 <0>         0.1344
     38 H15         5.2787   -6.7380    0.8525 H         1 <0>         0.1377
@<TRIPOS>BOND
     1    1    2 1
     2    1   26 1
     3    1   27 1
     4    1   28 1
     5    2    7 ar
     6    2    3 ar
     7    3    4 ar
     8    3   29 1
     9    4    5 ar
    10    4   30 1
    11    5    6 ar
    12    5    8 1
    13    6    7 ar
    14    6   31 1
    15    7   32 1
    16    8    9 1
    17    8   11 1
    18    8   10 1
    19   10   11 1
    20   10   33 1
    21   10   34 1
    22   11   12 1
    23   11   13 1
    24   13   18 1
    25   13   14 2
    26   14   15 1
    27   15   16 2
    28   16   17 1
    29   16   18 1
    30   18   19 1
    31   19   24 ar
    32   19   20 ar
    33   20   21 ar
    34   20   35 1
    35   21   22 ar
    36   21   36 1
    37   22   23 ar
    38   22   37 1
    39   23   24 ar
    40   23   25 1
    41   24   38 1
@<TRIPOS>MOLECULE
ZINC43879336
   35    36     0     0     0
SMALL
USER_CHARGES

@<TRIPOS>ATOM
      1 C1          0.4224    1.2731    0.3690 C.ar      1 <0>        -0.1165
      2 C2          1.6548    1.9022    0.4184 C.ar      1 <0>        -0.0936
      3 C3          2.8211    1.1589    0.3887 C.ar      1 <0>        -0.1002
      4 C4          2.7642   -0.2177    0.3099 C.ar      1 <0>        -0.0675
      5 C5          1.5226   -0.8607    0.2600 C.ar      1 <0>        -0.1361
      6 C6          0.3483   -0.1011    0.2901 C.ar      1 <0>        -0.0658
      7 C7          1.4524   -2.3278    0.1755 C.2       1 <0>         0.3797
      8 O1          2.4724   -2.9830    0.1488 O.2       1 <0>        -0.4145
      9 C8          0.1129   -3.0162    0.1220 C.3       1 <0>        -0.1542
     10 C9          0.3204   -4.5297    0.0377 C.3       1 <0>        -0.0451
     11 H1          0.9625   -4.7617   -0.8121 H         1 <0>         0.0557
     12 C10         0.9797   -5.0267    1.3258 C.3       1 <0>        -0.1284
     13 C11         1.1871   -6.5402    1.2415 C.3       1 <0>        -0.0964
     14 C12        -0.1660   -7.2312    1.0617 C.3       1 <0>        -0.1310
     15 C13        -0.8254   -6.7343   -0.2264 C.3       1 <0>        -0.0898
     16 C14        -1.0328   -5.2207   -0.1421 C.3       1 <0>        -0.1570
     17 H2         -1.5025   -4.8667   -1.0598 H         1 <0>         0.0542
     18 C15        -1.9206   -4.9001    1.0327 C.2       1 <0>         0.5018
     19 O2         -2.9822   -4.3271    0.8560 O.co2     1 <0>        -0.7062
     20 O3         -1.5772   -5.2136    2.1598 O.co2     1 <0>        -0.6804
     21 I1          4.5318   -1.3414    0.2644 I         1 <0>        -0.0076
     22 H3         -0.4834    1.8605    0.3968 H         1 <0>         0.1342
     23 H4          1.7058    2.9793    0.4802 H         1 <0>         0.1318
     24 H5          3.7785    1.6571    0.4270 H         1 <0>         0.1311
     25 H6         -0.6139   -0.5900    0.2520 H         1 <0>         0.1439
     26 H7         -0.4548   -2.7768    1.0211 H         1 <0>         0.1039
     27 H8         -0.4360   -2.6752   -0.7558 H         1 <0>         0.0915
     28 H9          1.9437   -4.5344    1.4538 H         1 <0>         0.0529
     29 H10         0.3376   -4.7947    2.1755 H         1 <0>         0.0993
     30 H11         1.8292   -6.7721    0.3918 H         1 <0>         0.0389
     31 H12         1.6568   -6.8942    2.1591 H         1 <0>         0.0457
     32 H13        -0.0183   -8.3095    1.0017 H         1 <0>         0.0335
     33 H14        -0.8082   -6.9992    1.9114 H         1 <0>         0.1042
     34 H15        -0.1833   -6.9662   -1.0761 H         1 <0>         0.0404
     35 H16        -1.7894   -7.2265   -0.3544 H         1 <0>         0.0475
@<TRIPOS>BOND
     1    1    6 ar
     2    1    2 ar
     3    1   22 1
     4    2    3 ar
     5    2   23 1
     6    3    4 ar
     7    3   24 1
     8    4    5 ar
     9    4   21 1
    10    5    6 ar
    11    5    7 1
    12    6   25 1
    13    7    8 2
    14    7    9 1
    15    9   10 1
    16    9   26 1
    17    9   27 1
    18   10   11 1
    19   10   16 1
    20   10   12 1
    21   12   13 1
    22   12   28 1
    23   12   29 1
    24   13   14 1
    25   13   30 1
    26   13   31 1
    27   14   15 1
    28   14   32 1
    29   14   33 1
    30   15   16 1
    31   15   34 1
    32   15   35 1
    33   16   17 1
    34   16   18 1
    35   18   19 2
    36   18   20 1
@<TRIPOS>MOLECULE
ZINC13787529
   38    41     0     0     0
SMALL
USER_CHARGES

@<TRIPOS>ATOM
      1 C1         -1.7130    1.4483   -0.2035 C.3       1 <0>         0.0752
      2 N1         -1.6151   -0.0133   -0.1906 N.pl3     1 <0>        -0.4780
      3 C2         -1.3171   -0.7784   -1.2705 C.2       1 <0>         0.0905
      4 C3         -1.3070   -2.0980   -0.9114 C.2       1 <0>        -0.1594
      5 C4         -1.6303   -2.1411    0.5276 C.ar      1 <0>        -0.0829
      6 C5         -1.8070   -0.8054    0.9231 C.ar      1 <0>         0.0900
      7 C6         -2.1210   -0.5224    2.2481 C.ar      1 <0>        -0.1275
      8 C7         -2.2522   -1.5491    3.1582 C.ar      1 <0>        -0.1048
      9 C8         -2.0735   -2.8676    2.7665 C.ar      1 <0>        -0.1462
     10 C9         -1.7696   -3.1686    1.4563 C.ar      1 <0>        -0.0702
     11 C10        -1.0305   -3.2402   -1.7813 C.2       1 <0>         0.0362
     12 C11        -0.7454   -3.0401   -3.0977 C.2       1 <0>        -0.2089
     13 C12        -0.4426   -4.0208   -4.1597 C.2       1 <0>         0.5339
     14 O1         -0.4168   -5.2219   -3.9380 O.2       1 <0>        -0.5409
     15 N2         -0.2028   -3.5322   -5.3572 N.2       1 <0>        -0.7126
     16 C13        -0.2279   -2.2336   -5.6112 C.2       1 <0>         0.4473
     17 S1         -0.6399   -1.5164   -4.0282 S.3       1 <0>        -0.1454
     18 N3          0.0018   -1.5936   -6.8031 N.2       1 <0>        -0.5754
     19 C14         0.1081   -2.3340   -7.9855 C.ar      1 <0>         0.1564
     20 C15        -0.4785   -3.5897   -8.0749 C.ar      1 <0>        -0.1321
     21 C16        -0.3727   -4.3185   -9.2432 C.ar      1 <0>        -0.1346
     22 C17         0.3181   -3.7984  -10.3248 C.ar      1 <0>         0.0344
     23 C18         0.9042   -2.5468  -10.2377 C.ar      1 <0>        -0.1386
     24 C19         0.7956   -1.8119   -9.0735 C.ar      1 <0>        -0.1193
     25 F1          0.4208   -4.5133  -11.4666 F         1 <0>        -0.1573
     26 H1         -0.7363    1.8799    0.0150 H         1 <0>         0.0716
     27 H2         -2.0458    1.7815   -1.1865 H         1 <0>         0.0870
     28 H3         -2.4299    1.7711    0.5515 H         1 <0>         0.0810
     29 H4         -1.1181   -0.4024   -2.2632 H         1 <0>         0.1835
     30 H5         -2.2615    0.5009    2.5637 H         1 <0>         0.1168
     31 H6         -2.4960   -1.3248    4.1861 H         1 <0>         0.1228
     32 H7         -2.1789   -3.6623    3.4902 H         1 <0>         0.1222
     33 H8         -1.6298   -4.1959    1.1540 H         1 <0>         0.1250
     34 H9         -1.0525   -4.2426   -1.3798 H         1 <0>         0.1448
     35 H10        -1.0168   -3.9960   -7.2314 H         1 <0>         0.1469
     36 H11        -0.8288   -5.2950   -9.3132 H         1 <0>         0.1205
     37 H12         1.4431   -2.1434  -11.0822 H         1 <0>         0.1234
     38 H13         1.2487   -0.8338   -9.0076 H         1 <0>         0.1247
@<TRIPOS>BOND
     1    1    2 1
     2    1   26 1
     3    1   27 1
     4    1   28 1
     5    2    6 1
     6    2    3 1
     7    3    4 2
     8    3   29 1
     9    4    5 1
    10    4   11 1
    11    5   10 ar
    12    5    6 ar
    13    6    7 ar
    14    7    8 ar
    15    7   30 1
    16    8    9 ar
    17    8   31 1
    18    9   10 ar
    19    9   32 1
    20   10   33 1
    21   11   12 2
    22   11   34 1
    23   12   17 1
    24   12   13 1
    25   13   14 2
    26   13   15 1
    27   15   16 2
    28   16   17 1
    29   16   18 1
    30   18   19 1
    31   19   24 ar
    32   19   20 ar
    33   20   21 ar
    34   20   35 1
    35   21   22 ar
    36   21   36 1
    37   22   23 ar
    38   22   25 1
    39   23   24 ar
    40   23   37 1
    41   24   38 1
@<TRIPOS>MOLECULE
ZINC64374591
   33    34     0     0     0
SMALL
USER_CHARGES

@<TRIPOS>ATOM
      1 C1          0.0190    1.5058   -0.0456 C.3       1 <0>        -0.1155
      2 C2          0.0267   -0.0011   -0.0316 C.ar      1 <0>        -0.0412
      3 C3         -0.0089   -0.7035   -1.2220 C.ar      1 <0>        -0.1461
      4 C4         -0.0019   -2.0856   -1.2100 C.ar      1 <0>        -0.0168
      5 C5          0.0403   -2.7665   -0.0077 C.ar      1 <0>        -0.6208
      6 C6          0.0759   -2.0643    1.1836 C.ar      1 <0>         0.0654
      7 C7          0.0750   -0.6806    1.1707 C.ar      1 <0>        -0.1415
      8 Cl1         0.1288   -2.9186    2.6939 Cl        1 <0>        -0.0308
      9 S1          0.0480   -4.5284    0.0074 S.o2      1 <0>         2.6009
     10 O1         -0.9459   -4.9309    0.9398 O.2       1 <0>        -1.0104
     11 O2          0.0324   -4.9463   -1.3506 O.2       1 <0>        -1.0262
     12 N1          1.5050   -5.0063    0.6330 N.2       1 <0>        -1.0564
     13 C8          1.7608   -6.3627    0.8504 C.ar      1 <0>         0.3223
     14 C9          0.8542   -7.3195    0.4154 C.ar      1 <0>        -0.2872
     15 C10         1.1114   -8.6638    0.6330 C.ar      1 <0>         0.1756
     16 C11         2.2739   -9.0510    1.2848 C.ar      1 <0>        -0.2992
     17 C12         3.1761   -8.0978    1.7177 C.ar      1 <0>        -0.0366
     18 C13         2.9264   -6.7562    1.4978 C.ar      1 <0>        -0.1182
     19 Cl2         4.0656   -5.5619    2.0360 Cl        1 <0>        -0.0907
     20 O3          0.2252   -9.6028    0.2084 O.3       1 <0>        -0.3234
     21 C14         0.5545  -10.9693    0.4663 C.3       1 <0>         0.0320
     22 H1          1.0441    1.8740   -0.0874 H         1 <0>         0.0761
     23 H2         -0.5296    1.8583   -0.9190 H         1 <0>         0.0702
     24 H3         -0.4630    1.8751    0.8596 H         1 <0>         0.0695
     25 H4         -0.0425   -0.1720   -2.1616 H         1 <0>         0.1312
     26 H5         -0.0297   -2.6337   -2.1402 H         1 <0>         0.1459
     27 H6          0.1073   -0.1318    2.1004 H         1 <0>         0.1351
     28 H7         -0.0502   -7.0169   -0.0914 H         1 <0>         0.1122
     29 H8          2.4735  -10.0988    1.4544 H         1 <0>         0.1162
     30 H9          4.0797   -8.4019    2.2250 H         1 <0>         0.1173
     31 H10         0.6517  -11.1230    1.5410 H         1 <0>         0.0508
     32 H11        -0.2345  -11.6128    0.0771 H         1 <0>         0.0892
     33 H12         1.4974  -11.2142   -0.0226 H         1 <0>         0.0508
@<TRIPOS>BOND
     1    1    2 1
     2    1   22 1
     3    1   23 1
     4    1   24 1
     5    2    7 ar
     6    2    3 ar
     7    3    4 ar
     8    3   25 1
     9    4    5 ar
    10    4   26 1
    11    5    6 ar
    12    5    9 1
    13    6    7 ar
    14    6    8 1
    15    7   27 1
    16    9   10 2
    17    9   11 2
    18    9   12 1
    19   12   13 1
    20   13   18 ar
    21   13   14 ar
    22   14   15 ar
    23   14   28 1
    24   15   16 ar
    25   15   20 1
    26   16   17 ar
    27   16   29 1
    28   17   18 ar
    29   17   30 1
    30   18   19 1
    31   20   21 1
    32   21   31 1
    33   21   32 1
    34   21   33 1
@<TRIPOS>MOLECULE
ZINC20591285
   25    27     0     0     0
SMALL
USER_CHARGES
4-(2-bromophenyl)-5-(2-thienyl)-1,2,4-triazole-3-thiol
@<TRIPOS>ATOM
      1 C1         -0.0601    4.6557    0.0267 C.ar      1 <0>        -0.0978
      2 C2          1.1450    3.9773    0.0120 C.ar      1 <0>        -0.1074
      3 C3          1.1634    2.5949    0.0049 C.ar      1 <0>        -0.0895
      4 C4         -0.0236    1.8867    0.0124 C.ar      1 <0>        -0.0652
      5 C5         -1.2352    2.5657    0.0218 C.ar      1 <0>         0.1795
      6 C6         -1.2496    3.9538    0.0343 C.ar      1 <0>        -0.0895
      7 N1         -2.4411    1.8506    0.0236 N.pl3     1 <0>        -0.4583
      8 C7         -3.1639    1.4311   -1.0735 C.2       1 <0>         0.1928
      9 N2         -4.2227    0.7986   -0.6168 N.2       1 <0>        -0.2517
     10 N3         -4.2119    0.7938    0.6680 N.2       1 <0>        -0.3344
     11 C8         -3.1455    1.4170    1.1152 C.2       1 <0>         0.3997
     12 S1         -2.7051    1.6537    2.8048 S.3       1 <0>        -0.7758
     13 C9         -2.8165    1.6496   -2.4865 C.2       1 <0>        -0.0373
     14 C10        -3.3183    1.0341   -3.6056 C.2       1 <0>        -0.1445
     15 C11        -2.8374    1.4121   -4.8391 C.2       1 <0>        -0.1431
     16 C12        -1.8770    2.3698   -4.9104 C.2       1 <0>        -0.1949
     17 S2         -1.6268    2.7793   -3.1909 S.3       1 <0>         0.0564
     18 Br1         0.0021   -0.0041    0.0020 Br        1 <0>        -0.0337
     19 H1         -0.0710    5.7356    0.0318 H         1 <0>         0.1344
     20 H2          2.0737    4.5286    0.0065 H         1 <0>         0.1342
     21 H3          2.1060    2.0679   -0.0062 H         1 <0>         0.1365
     22 H4         -2.1902    4.4845    0.0453 H         1 <0>         0.1313
     23 H5         -4.0780    0.2711   -3.5208 H         1 <0>         0.1411
     24 H6         -3.2154    0.9491   -5.7385 H         1 <0>         0.1338
     25 H7         -1.3897    2.7786   -5.7833 H         1 <0>         0.1835
@<TRIPOS>BOND
     1    1    6 ar
     2    1    2 ar
     3    1   19 1
     4    2    3 ar
     5    2   20 1
     6    3    4 ar
     7    3   21 1
     8    4    5 ar
     9    4   18 1
    10    5    6 ar
    11    5    7 1
    12    6   22 1
    13    7   11 1
    14    7    8 1
    15    8   13 1
    16    8    9 2
    17    9   10 1
    18   10   11 2
    19   11   12 1
    20   13   17 1
    21   13   14 2
    22   14   15 1
    23   14   23 1
    24   15   16 2
    25   15   24 1
    26   16   17 1
    27   16   25 1
@<TRIPOS>MOLECULE
ZINC36317400
   35    36     0     0     0
SMALL
USER_CHARGES

@<TRIPOS>ATOM
      1 C1          0.0872    1.5735    0.0669 C.3       1 <0>        -0.0976
      2 C2          0.2321    0.0737    0.0402 C.2       1 <0>        -0.0316
      3 C3          0.4925   -0.5704   -1.1291 C.2       1 <0>        -0.1064
      4 C4          0.6256   -1.9694   -1.1385 C.2       1 <0>        -0.1279
      5 C5          0.4959   -2.6733    0.0065 C.2       1 <0>         0.1190
      6 N1          0.2345   -2.0386    1.1866 N.pl3     1 <0>        -0.3535
      7 C6          0.1049   -0.6748    1.2276 C.2       1 <0>         0.2032
      8 N2         -0.1377   -0.3231    2.4826 N.2       1 <0>        -0.4712
      9 C7         -0.1625   -1.4172    3.2472 C.2       1 <0>         0.0597
     10 C8          0.0586   -2.4959    2.4641 C.2       1 <0>         0.0301
     11 C9          0.1161   -3.9325    2.9159 C.3       1 <0>        -0.1310
     12 C10         1.5497   -4.3227    3.1682 C.2       1 <0>         0.4983
     13 O1          2.4420   -3.5096    2.9971 O.co2     1 <0>        -0.6794
     14 O2          1.8173   -5.4514    3.5435 O.co2     1 <0>        -0.6965
     15 C11        -0.4081   -1.4455    4.7338 C.3       1 <0>         0.0174
     16 C12        -0.4779   -0.0130    5.2665 C.3       1 <0>        -0.1232
     17 C13        -1.7303   -2.1607    5.0188 C.3       1 <0>        -0.1410
     18 C14         0.7347   -2.1917    5.4254 C.3       1 <0>        -0.1428
     19 Br1         0.9870   -2.8699   -2.7615 Br        1 <0>        -0.0301
     20 H1          1.0617    2.0296    0.2411 H         1 <0>         0.0749
     21 H2         -0.3094    1.9172   -0.8884 H         1 <0>         0.0690
     22 H3         -0.5956    1.8583    0.8674 H         1 <0>         0.0774
     23 H4          0.5963   -0.0094   -2.0461 H         1 <0>         0.1429
     24 H5          0.5996   -3.7482   -0.0115 H         1 <0>         0.1636
     25 H6         -0.4589   -4.0478    3.8346 H         1 <0>         0.0954
     26 H7         -0.3040   -4.5740    2.1413 H         1 <0>         0.0650
     27 H8         -1.2920    0.5186    4.7739 H         1 <0>         0.0559
     28 H9         -0.6555   -0.0334    6.3418 H         1 <0>         0.0495
     29 H10         0.4641    0.4965    5.0635 H         1 <0>         0.0560
     30 H11        -1.6458   -3.2087    4.7314 H         1 <0>         0.0603
     31 H12        -1.9581   -2.0928    6.0825 H         1 <0>         0.0599
     32 H13        -2.5289   -1.6899    4.4454 H         1 <0>         0.0526
     33 H14         1.6767   -1.6822    5.2223 H         1 <0>         0.0587
     34 H15         0.5571   -2.2122    6.5006 H         1 <0>         0.0515
     35 H16         0.7844   -3.2123    5.0458 H         1 <0>         0.0720
@<TRIPOS>BOND
     1    1    2 1
     2    1   20 1
     3    1   21 1
     4    1   22 1
     5    2    7 1
     6    2    3 2
     7    3    4 1
     8    3   23 1
     9    4    5 2
    10    4   19 1
    11    5    6 1
    12    5   24 1
    13    6   10 1
    14    6    7 1
    15    7    8 2
    16    8    9 1
    17    9   10 2
    18    9   15 1
    19   10   11 1
    20   11   12 1
    21   11   25 1
    22   11   26 1
    23   12   13 2
    24   12   14 1
    25   15   16 1
    26   15   17 1
    27   15   18 1
    28   16   27 1
    29   16   28 1
    30   16   29 1
    31   17   30 1
    32   17   31 1
    33   17   32 1
    34   18   33 1
    35   18   34 1
    36   18   35 1
@<TRIPOS>MOLECULE
ZINC42350506
   29    30     0     0     0
SMALL
USER_CHARGES

@<TRIPOS>ATOM
      1 C1          0.2550    1.5672    0.2673 C.3       1 <0>        -0.0910
      2 C2          0.2422    0.0739    0.0653 C.ar      1 <0>        -0.1249
      3 C3          0.3590   -0.4528   -1.2060 C.ar      1 <0>        -0.1156
      4 C4          0.3473   -1.8230   -1.3923 C.ar      1 <0>        -0.1800
      5 C5          0.2193   -2.6704   -0.3070 C.ar      1 <0>        -0.1115
      6 C6          0.1021   -2.1504    0.9670 C.ar      1 <0>        -0.1574
      7 C7          0.1187   -0.7746    1.1582 C.ar      1 <0>         0.2458
      8 N1          0.0057   -0.2454    2.4459 N.2       1 <0>        -1.1232
      9 S1          1.2293   -0.4620    3.5404 S.o2      1 <0>         2.6161
     10 O1          1.2904   -1.8557    3.8108 O.2       1 <0>        -1.0079
     11 O2          2.3456    0.2688    3.0515 O.2       1 <0>        -1.0140
     12 C8          0.7324    0.3203    5.0390 C.2       1 <0>        -0.6343
     13 C9          1.4007    0.4152    6.2149 C.2       1 <0>        -0.0356
     14 C10         0.8089    1.0852    7.2698 C.2       1 <0>        -0.1625
     15 C11        -0.4215    1.6270    7.0969 C.2       1 <0>        -0.1804
     16 S2         -0.7782    1.2004    5.4004 S.3       1 <0>         0.2157
     17 Br1         3.1156   -0.3575    6.4095 Br        1 <0>        -0.0345
     18 C12        -0.0380   -3.0746    2.1491 C.3       1 <0>        -0.0933
     19 H1          1.2807    1.9052    0.4144 H         1 <0>         0.0535
     20 H2         -0.1663    2.0563   -0.6111 H         1 <0>         0.0400
     21 H3         -0.3403    1.8203    1.1446 H         1 <0>         0.0739
     22 H4          0.4591    0.2062   -2.0558 H         1 <0>         0.1025
     23 H5          0.4381   -2.2323   -2.3876 H         1 <0>         0.1014
     24 H6          0.2106   -3.7401   -0.4559 H         1 <0>         0.1014
     25 H7          1.3191    1.1751    8.2174 H         1 <0>         0.1421
     26 H8         -1.0272    2.1778    7.8014 H         1 <0>         0.1942
     27 H9          0.9497   -3.4034    2.4722 H         1 <0>         0.0727
     28 H10        -0.5307   -2.5475    2.9661 H         1 <0>         0.0735
     29 H11        -0.6342   -3.9414    1.8640 H         1 <0>         0.0333
@<TRIPOS>BOND
     1    1    2 1
     2    1   19 1
     3    1   20 1
     4    1   21 1
     5    2    7 ar
     6    2    3 ar
     7    3    4 ar
     8    3   22 1
     9    4    5 ar
    10    4   23 1
    11    5    6 ar
    12    5   24 1
    13    6    7 ar
    14    6   18 1
    15    7    8 1
    16    8    9 1
    17    9   10 2
    18    9   11 2
    19    9   12 1
    20   12   16 1
    21   12   13 2
    22   13   14 1
    23   13   17 1
    24   14   15 2
    25   14   25 1
    26   15   16 1
    27   15   26 1
    28   18   27 1
    29   18   28 1
    30   18   29 1
@<TRIPOS>MOLECULE
ZINC57766214
   46    48     0     0     0
SMALL
USER_CHARGES

@<TRIPOS>ATOM
      1 C1          0.2607    2.2595    0.5585 C.3       1 <0>        -0.1483
      2 C2          0.2602    0.7515    0.2994 C.3       1 <0>        -0.0788
      3 C3          0.9195    0.0431    1.4546 C.ar      1 <0>        -0.0716
      4 C4          2.2834   -0.1827    1.4388 C.ar      1 <0>        -0.1389
      5 C5          2.8949   -0.8328    2.4945 C.ar      1 <0>        -0.1084
      6 C6          2.1412   -1.2615    3.5765 C.ar      1 <0>         0.0576
      7 C7          0.7682   -1.0307    3.5914 C.ar      1 <0>         0.1561
      8 C8          0.1606   -0.3754    2.5322 C.ar      1 <0>        -0.1530
      9 N1          0.0022   -1.4561    4.6882 N.pl3     1 <0>        -0.6259
     10 C9          0.6239   -2.4003    5.6325 C.3       1 <0>         0.1042
     11 C10         2.0698   -1.9393    5.8650 C.3       1 <0>         0.0983
     12 O1          2.7501   -1.9040    4.6082 O.3       1 <0>        -0.3095
     13 C11         2.0686   -0.5414    6.4868 C.3       1 <0>        -0.1668
     14 C12         2.7762   -2.9201    6.8030 C.3       1 <0>        -0.1355
     15 C13        -1.3683   -0.9779    4.8866 C.3       1 <0>         0.1778
     16 C14        -1.3395    0.3421    5.6131 C.ar      1 <0>        -0.1241
     17 C15        -1.2773    0.3661    6.9953 C.ar      1 <0>        -0.1220
     18 C16        -1.2511    1.5704    7.6670 C.ar      1 <0>        -0.0880
     19 C17        -1.2870    2.7681    6.9484 C.ar      1 <0>        -0.1258
     20 C18        -1.3493    2.7361    5.5529 C.ar      1 <0>        -0.0864
     21 C19        -1.3696    1.5244    4.8945 C.ar      1 <0>        -0.1190
     22 C20        -1.2598    4.0604    7.6597 C.2       1 <0>         0.5178
     23 O2         -1.2057    4.0850    8.8812 O.co2     1 <0>        -0.6879
     24 O3         -1.2914    5.1069    7.0278 O.co2     1 <0>        -0.6868
     25 H1          1.2876    2.6101    0.6614 H         1 <0>         0.0557
     26 H2         -0.2161    2.7718   -0.2771 H         1 <0>         0.0547
     27 H3         -0.2890    2.4707    1.4757 H         1 <0>         0.0584
     28 H4         -0.7667    0.4009    0.1965 H         1 <0>         0.0672
     29 H5          0.8099    0.5403   -0.6178 H         1 <0>         0.0681
     30 H6          2.8736    0.1500    0.5977 H         1 <0>         0.1207
     31 H7          3.9606   -1.0072    2.4763 H         1 <0>         0.1250
     32 H8         -0.9042   -0.1952    2.5466 H         1 <0>         0.1231
     33 H9          0.0775   -2.3940    6.5756 H         1 <0>         0.0897
     34 H10         0.6195   -3.4044    5.2083 H         1 <0>         0.0665
     35 H11         1.5391   -0.5678    7.4392 H         1 <0>         0.0701
     36 H12         3.0958   -0.2159    6.6511 H         1 <0>         0.0614
     37 H13         1.5700    0.1555    5.8131 H         1 <0>         0.0695
     38 H14         2.7804   -3.9133    6.3540 H         1 <0>         0.0648
     39 H15         3.8024   -2.5912    6.9669 H         1 <0>         0.0695
     40 H16         2.2491   -2.9547    7.7565 H         1 <0>         0.0779
     41 H17        -1.8519   -0.8492    3.9183 H         1 <0>         0.0773
     42 H18        -1.9251   -1.7055    5.4770 H         1 <0>         0.0798
     43 H19        -1.2496   -0.5605    7.5495 H         1 <0>         0.1071
     44 H20        -1.2033    1.5876    8.7458 H         1 <0>         0.1237
     45 H21        -1.3773    3.6580    4.9911 H         1 <0>         0.1242
     46 H22        -1.4133    1.4981    3.8157 H         1 <0>         0.1106
@<TRIPOS>BOND
     1    1    2 1
     2    1   25 1
     3    1   26 1
     4    1   27 1
     5    2    3 1
     6    2   28 1
     7    2   29 1
     8    3    8 ar
     9    3    4 ar
    10    4    5 ar
    11    4   30 1
    12    5    6 ar
    13    5   31 1
    14    6   12 1
    15    6    7 ar
    16    7    8 ar
    17    7    9 1
    18    8   32 1
    19    9   10 1
    20    9   15 1
    21   10   11 1
    22   10   33 1
    23   10   34 1
    24   11   12 1
    25   11   13 1
    26   11   14 1
    27   13   35 1
    28   13   36 1
    29   13   37 1
    30   14   38 1
    31   14   39 1
    32   14   40 1
    33   15   16 1
    34   15   41 1
    35   15   42 1
    36   16   21 ar
    37   16   17 ar
    38   17   18 ar
    39   17   43 1
    40   18   19 ar
    41   18   44 1
    42   19   20 ar
    43   19   22 1
    44   20   21 ar
    45   20   45 1
    46   21   46 1
    47   22   23 2
    48   22   24 1
@<TRIPOS>MOLECULE
ZINC13750617
   32    34     0     0     0
SMALL
USER_CHARGES

@<TRIPOS>ATOM
      1 C1          0.0557    1.3518    0.0435 C.ar      1 <0>        -0.0487
      2 C2          1.2266    2.0326    0.2962 C.ar      1 <0>        -0.1550
      3 C3          2.3355    1.3554    0.7810 C.ar      1 <0>         0.1262
      4 C4          2.2748   -0.0103    1.0144 C.ar      1 <0>        -0.1490
      5 C5          1.1105   -0.7039    0.7657 C.ar      1 <0>        -0.0644
      6 C6         -0.0129   -0.0266    0.2772 C.ar      1 <0>        -0.1061
      7 C7         -1.2583   -0.7593    0.0105 C.2       1 <0>         0.0734
      8 C8         -1.2396   -2.1115   -0.0994 C.2       1 <0>        -0.2307
      9 C9         -2.3668   -3.0572   -0.2195 C.2       1 <0>         0.5554
     10 O1         -3.5214   -2.6727   -0.2320 O.2       1 <0>        -0.4829
     11 N1         -2.0645   -4.3410   -0.3135 N.am      1 <0>        -0.6888
     12 C10        -0.7507   -4.7563   -0.2975 C.2       1 <0>         0.3618
     13 N2         -0.2799   -5.9803   -0.3800 N.2       1 <0>        -0.4553
     14 C11        -1.1403   -7.0379   -0.4997 C.ar      1 <0>         0.1073
     15 C12        -2.2801   -7.1092    0.3044 C.ar      1 <0>        -0.1644
     16 C13        -3.1434   -8.1775    0.1784 C.ar      1 <0>        -0.0670
     17 C14        -2.8819   -9.1780   -0.7422 C.ar      1 <0>        -0.0988
     18 C15        -1.7536   -9.1136   -1.5420 C.ar      1 <0>        -0.0699
     19 C16        -0.8854   -8.0476   -1.4305 C.ar      1 <0>        -0.0947
     20 Br1        -4.0708  -10.6392   -0.9076 Br        1 <0>        -0.0412
     21 S1          0.1564   -3.2261   -0.1454 S.3       1 <0>         0.1022
     22 F1          3.4805    2.0291    1.0266 F         1 <0>        -0.1304
     23 H1         -0.8085    1.8812   -0.3298 H         1 <0>         0.1461
     24 H2          1.2811    3.0961    0.1160 H         1 <0>         0.1458
     25 H3          3.1422   -0.5315    1.3916 H         1 <0>         0.1466
     26 H4          1.0648   -1.7675    0.9472 H         1 <0>         0.1421
     27 H5         -2.1885   -0.2216   -0.0981 H         1 <0>         0.1659
     28 H6         -2.7746   -4.9969   -0.3941 H         1 <0>         0.4182
     29 H7         -2.4849   -6.3298    1.0234 H         1 <0>         0.1306
     30 H8         -4.0252   -8.2339    0.7995 H         1 <0>         0.1392
     31 H9         -1.5552   -9.8975   -2.2580 H         1 <0>         0.1427
     32 H10        -0.0082   -7.9961   -2.0583 H         1 <0>         0.1437
@<TRIPOS>BOND
     1    1    6 ar
     2    1    2 ar
     3    1   23 1
     4    2    3 ar
     5    2   24 1
     6    3    4 ar
     7    3   22 1
     8    4    5 ar
     9    4   25 1
    10    5    6 ar
    11    5   26 1
    12    6    7 1
    13    7    8 2
    14    7   27 1
    15    8   21 1
    16    8    9 1
    17    9   10 2
    18    9   11 am
    19   11   12 1
    20   11   28 1
    21   12   13 2
    22   12   21 1
    23   13   14 1
    24   14   19 ar
    25   14   15 ar
    26   15   16 ar
    27   15   29 1
    28   16   17 ar
    29   16   30 1
    30   17   18 ar
    31   17   20 1
    32   18   19 ar
    33   18   31 1
    34   19   32 1
@<TRIPOS>MOLECULE
ZINC05276021
   60    63     0     0     0
SMALL
USER_CHARGES
4-(10,13-dimethyl-3-oxo-1,2,8,9,11,12,14,15,16,17-decahydrocyclopenta[a]phenanthren-17-yl)pentanoic acid
@<TRIPOS>ATOM
      1 C1         -0.4296    1.2472    0.1818 C.3       1 <0>        -0.1527
      2 C2          0.0148   -0.2074    0.0163 C.3       1 <0>        -0.0917
      3 H1          0.5761   -0.3124   -0.9122 H         1 <0>         0.0750
      4 C3         -1.2161   -1.1150   -0.0265 C.3       1 <0>        -0.0931
      5 C4         -2.0398   -0.7987   -1.2765 C.3       1 <0>        -0.1573
      6 C5         -3.2523   -1.6927   -1.3187 C.2       1 <0>         0.4565
      7 O1         -3.4385   -2.5000   -0.4392 O.co2     1 <0>        -0.6430
      8 C6          0.8998   -0.6059    1.1934 C.3       1 <0>        -0.0746
      9 H2          0.4334   -0.3720    2.1415 H         1 <0>         0.0703
     10 C7          1.2765   -2.1071    1.1100 C.3       1 <0>        -0.1220
     11 C8          2.8031   -2.1917    1.3915 C.3       1 <0>        -0.1176
     12 C9          3.1160   -0.8087    1.9847 C.3       1 <0>        -0.0734
     13 H3          2.6918   -0.7871    3.0112 H         1 <0>         0.0704
     14 C10         2.2663    0.1114    1.0867 C.3       1 <0>        -0.0515
     15 C11         2.2685    1.5339    1.5768 C.3       1 <0>        -0.1038
     16 C12         3.6398    1.9223    2.1551 C.3       1 <0>        -0.1079
     17 C13         4.7343    1.0401    1.5791 C.3       1 <0>        -0.0710
     18 H4          4.6819    1.0680    0.4848 H         1 <0>         0.0852
     19 C14         4.5539   -0.4012    2.0655 C.3       1 <0>        -0.0533
     20 H5          4.8291   -0.4468    3.1364 H         1 <0>         0.0846
     21 C15         5.5143   -1.2937    1.3386 C.2       1 <0>        -0.0769
     22 C16         6.7083   -0.8173    0.9722 C.2       1 <0>        -0.1717
     23 C17         7.1067    0.5633    1.2432 C.2       1 <0>         0.0404
     24 C18         8.3318    0.9886    0.8513 C.2       1 <0>        -0.2585
     25 C19         8.7447    2.3184    1.0162 C.2       1 <0>         0.3895
     26 O2          9.8710    2.6396    0.6882 O.2       1 <0>        -0.4773
     27 C20         7.8155    3.3548    1.5898 C.3       1 <0>        -0.1601
     28 C21         6.3635    2.9250    1.3754 C.3       1 <0>        -0.1082
     29 C22         6.1471    1.5136    1.9250 C.3       1 <0>        -0.0340
     30 C23         6.3777    1.5053    3.4326 C.3       1 <0>        -0.1406
     31 C24         2.6718    0.0334   -0.3871 C.3       1 <0>        -0.1472
     32 H6          0.4410    1.9011    0.1316 H         1 <0>         0.0539
     33 H7         -1.1259    1.5074   -0.6155 H         1 <0>         0.0562
     34 H8         -0.9206    1.3695    1.1472 H         1 <0>         0.0491
     35 H9         -0.8983   -2.1573   -0.0550 H         1 <0>         0.0609
     36 H10        -1.8242   -0.9448    0.8619 H         1 <0>         0.0559
     37 H11        -2.3577    0.2435   -1.2480 H         1 <0>         0.0628
     38 H12        -1.4318   -0.9690   -2.1650 H         1 <0>         0.0587
     39 H13         0.7270   -2.6728    1.8614 H         1 <0>         0.0631
     40 H14         1.0584   -2.4935    0.1150 H         1 <0>         0.0699
     41 H15         3.0071   -2.9721    2.1290 H         1 <0>         0.0586
     42 H16         3.3632   -2.3778    0.4818 H         1 <0>         0.0687
     43 H17         1.5024    1.6584    2.3549 H         1 <0>         0.0633
     44 H18         2.0173    2.2128    0.7517 H         1 <0>         0.0671
     45 H19         3.6101    1.8198    3.2440 H         1 <0>         0.0617
     46 H20         3.8460    2.9702    1.9131 H         1 <0>         0.0646
     47 H21         5.2524   -2.3143    1.1161 H         1 <0>         0.1268
     48 H22         7.4008   -1.4751    0.4668 H         1 <0>         0.1210
     49 H23         9.0123    0.2793    0.4029 H         1 <0>         0.1292
     50 H24         7.9605    4.2273    1.1232 H         1 <0>         0.0832
     51 H25         8.0218    3.4924    2.6492 H         1 <0>         0.1006
     52 H26         6.1319    2.9379    0.3084 H         1 <0>         0.0725
     53 H27         5.6999    3.6210    1.8928 H         1 <0>         0.0831
     54 H28         6.2471    0.4928    3.8145 H         1 <0>         0.0628
     55 H29         7.3904    1.8466    3.6471 H         1 <0>         0.0586
     56 H30         5.6606    2.1704    3.9136 H         1 <0>         0.0697
     57 H31         2.0166    0.6729   -0.9786 H         1 <0>         0.0624
     58 H32         3.7032    0.3680   -0.4984 H         1 <0>         0.0517
     59 H33         2.5844   -0.9962   -0.7340 H         1 <0>         0.0603
     60 O3         -4.1253   -1.5921   -2.3333 O.co2     1 <0>        -0.7808
@<TRIPOS>BOND
     1    1    2 1
     2    1   32 1
     3    1   33 1
     4    1   34 1
     5    2    3 1
     6    2    4 1
     7    2    8 1
     8    4    5 1
     9    4   35 1
    10    4   36 1
    11    5    6 1
    12    5   37 1
    13    5   38 1
    14    6    7 2
    15    6   60 1
    16    8    9 1
    17    8   14 1
    18    8   10 1
    19   10   11 1
    20   10   39 1
    21   10   40 1
    22   11   12 1
    23   11   41 1
    24   11   42 1
    25   12   13 1
    26   12   19 1
    27   12   14 1
    28   14   15 1
    29   14   31 1
    30   15   16 1
    31   15   43 1
    32   15   44 1
    33   16   17 1
    34   16   45 1
    35   16   46 1
    36   17   18 1
    37   17   29 1
    38   17   19 1
    39   19   20 1
    40   19   21 1
    41   21   22 2
    42   21   47 1
    43   22   23 1
    44   22   48 1
    45   23   29 1
    46   23   24 2
    47   24   25 1
    48   24   49 1
    49   25   26 2
    50   25   27 1
    51   27   28 1
    52   27   50 1
    53   27   51 1
    54   28   29 1
    55   28   52 1
    56   28   53 1
    57   29   30 1
    58   30   54 1
    59   30   55 1
    60   30   56 1
    61   31   57 1
    62   31   58 1
    63   31   59 1
@<TRIPOS>MOLECULE
ZINC24070489
   34    37     0     0     0
SMALL
USER_CHARGES
N-benzo[e][1,3]benzothiazol-2-yl-5-methyl-thiophene-2-sulfonamide
@<TRIPOS>ATOM
      1 C1         -8.4132    0.0870   -4.5558 C.3       1 <0>        -0.0742
      2 C2         -7.7266   -0.8114   -3.5595 C.2       1 <0>        -0.1397
      3 C3         -7.2497   -2.0686   -3.7307 C.2       1 <0>        -0.1926
      4 C4         -6.6497   -2.7091   -2.6628 C.2       1 <0>        -0.0283
      5 C5         -6.5558   -2.0610   -1.4760 C.2       1 <0>        -0.7373
      6 S1         -7.3362   -0.4985   -1.8458 S.3       1 <0>         0.1713
      7 S2         -5.8529   -2.6189    0.0403 S.o2      1 <0>         2.6388
      8 O1         -5.8874   -4.0391    0.0058 O.2       1 <0>        -0.9630
      9 O2         -6.4709   -1.8668    1.0755 O.2       1 <0>        -0.9973
     10 N1         -4.2550   -2.1840    0.0286 N.2       1 <0>        -0.9587
     11 C6         -3.9029   -0.8486    0.0328 C.2       1 <0>         0.4937
     12 N2         -2.7030   -0.3100    0.0251 N.2       1 <0>        -0.5855
     13 C7         -2.5080    1.0219    0.0310 C.ar      1 <0>         0.1776
     14 C8         -1.2315    1.7639    0.0175 C.ar      1 <0>        -0.0328
     15 C9         -0.0126    1.0758    0.0080 C.ar      1 <0>        -0.0733
     16 C10         1.1564    1.7783    0.0006 C.ar      1 <0>        -0.1454
     17 C11         1.1515    3.1703    0.0081 C.ar      1 <0>        -0.1144
     18 C12        -0.0179    3.8679    0.0231 C.ar      1 <0>        -0.1229
     19 C13        -1.2420    3.1749    0.0311 C.ar      1 <0>        -0.0218
     20 C14        -2.4631    3.8785    0.0461 C.ar      1 <0>        -0.1627
     21 C15        -3.6395    3.1968    0.0532 C.ar      1 <0>        -0.0193
     22 C16        -3.6698    1.8146    0.0459 C.ar      1 <0>        -0.2030
     23 S3         -4.9603    0.5921    0.0510 S.3       1 <0>        -0.1522
     24 H1         -8.4891   -0.4297   -5.5239 H         1 <0>         0.0797
     25 H2         -7.8302    1.0117   -4.6784 H         1 <0>         0.0800
     26 H3         -9.4214    0.3347   -4.1923 H         1 <0>         0.0789
     27 H4         -7.3370   -2.5624   -4.6872 H         1 <0>         0.1334
     28 H5         -6.2611   -3.7108   -2.7725 H         1 <0>         0.1416
     29 H6          0.0021   -0.0041    0.0020 H         1 <0>         0.1318
     30 H7          2.0973    1.2482   -0.0117 H         1 <0>         0.1172
     31 H8          2.0896    3.7054    0.0017 H         1 <0>         0.1152
     32 H9         -0.0057    4.9478    0.0285 H         1 <0>         0.1223
     33 H10        -2.4643    4.9585    0.0517 H         1 <0>         0.1255
     34 H11        -4.5693    3.7463    0.0651 H         1 <0>         0.1176
@<TRIPOS>BOND
     1    1    2 1
     2    1   24 1
     3    1   25 1
     4    1   26 1
     5    2    6 1
     6    2    3 2
     7    3    4 1
     8    3   27 1
     9    4    5 2
    10    4   28 1
    11    5    6 1
    12    5    7 1
    13    7    8 2
    14    7    9 2
    15    7   10 1
    16   10   11 1
    17   11   23 1
    18   11   12 2
    19   12   13 1
    20   13   22 ar
    21   13   14 ar
    22   14   19 ar
    23   14   15 ar
    24   15   16 ar
    25   15   29 1
    26   16   17 ar
    27   16   30 1
    28   17   18 ar
    29   17   31 1
    30   18   19 ar
    31   18   32 1
    32   19   20 ar
    33   20   21 ar
    34   20   33 1
    35   21   22 ar
    36   21   34 1
    37   22   23 1
@<TRIPOS>MOLECULE
ZINC28577706
   41    44     0     0     0
SMALL
USER_CHARGES

@<TRIPOS>ATOM
      1 C1         -0.0184    1.5028    0.0103 C.3       1 <0>        -0.0986
      2 C2          0.0021   -0.0041    0.0020 C.ar      1 <0>        -0.0865
      3 C3          0.0056   -0.6755   -1.1933 C.ar      1 <0>        -0.1031
      4 C4          0.0246   -2.0612   -1.2460 C.ar      1 <0>        -0.1563
      5 C5          0.0404   -2.7836   -0.0663 C.ar      1 <0>        -0.0534
      6 C6          0.0371   -2.1201    1.1344 C.ar      1 <0>        -0.1571
      7 C7          0.0233   -0.7095    1.2267 C.ar      1 <0>         0.1624
      8 N1          0.0279   -0.2048    2.4801 N.2       1 <0>        -0.5969
      9 C8          0.0485   -0.9694    3.5481 C.2       1 <0>         0.5249
     10 S1          0.0512   -2.6112    2.8418 S.3       1 <0>        -0.2216
     11 N2          0.0564   -0.5991    4.8775 N.2       1 <0>        -1.0029
     12 S2          0.0834   -1.7584    6.0598 S.o2      1 <0>         2.6225
     13 O1         -1.1535   -2.4527    5.9761 O.2       1 <0>        -1.0025
     14 O2          1.3368   -2.4192    5.9520 O.2       1 <0>        -1.0023
     15 C9          0.0872   -0.9213    7.6102 C.ar      1 <0>        -0.6217
     16 C10         1.2844   -0.5706    8.2063 C.ar      1 <0>        -0.0231
     17 C11         1.2792    0.0818    9.4216 C.ar      1 <0>        -0.1451
     18 C12         0.0804    0.3913   10.0515 C.ar      1 <0>        -0.0362
     19 C13        -1.1118    0.0467    9.4556 C.ar      1 <0>        -0.1033
     20 C14        -1.1044   -0.6086    8.2307 C.ar      1 <0>        -0.0172
     21 C15        -2.4484    0.3646   10.0730 C.3       1 <0>        -0.0811
     22 C16        -2.2923    0.6812   11.5589 C.3       1 <0>        -0.1191
     23 C17        -1.1957    1.7413   11.7153 C.3       1 <0>        -0.1205
     24 C18         0.1482    1.0974   11.3803 C.3       1 <0>        -0.0842
     25 H1          1.0042    1.8801    0.0026 H         1 <0>         0.0604
     26 H2         -0.5455    1.8639   -0.8728 H         1 <0>         0.0541
     27 H3         -0.5286    1.8543    0.9071 H         1 <0>         0.0716
     28 H4         -0.0071   -0.1125   -2.1149 H         1 <0>         0.1173
     29 H5          0.0267   -2.5710   -2.1981 H         1 <0>         0.1217
     30 H6          0.0550   -3.8633   -0.0904 H         1 <0>         0.1175
     31 H7          2.2205   -0.8071    7.7223 H         1 <0>         0.1382
     32 H8          2.2148    0.3540    9.8873 H         1 <0>         0.1272
     33 H9         -2.0392   -0.8796    7.7627 H         1 <0>         0.1371
     34 H10        -2.8828    1.2260    9.5657 H         1 <0>         0.0780
     35 H11        -3.1114   -0.4926    9.9559 H         1 <0>         0.0766
     36 H12        -3.2331    1.0654   11.9532 H         1 <0>         0.0678
     37 H13        -2.0091   -0.2223   12.0989 H         1 <0>         0.0651
     38 H14        -1.3860    2.5698   11.0331 H         1 <0>         0.0672
     39 H15        -1.1820    2.1065   12.7422 H         1 <0>         0.0672
     40 H16         0.4054    0.3774   12.1572 H         1 <0>         0.0787
     41 H17         0.9162    1.8697   11.3382 H         1 <0>         0.0773
@<TRIPOS>BOND
     1    1    2 1
     2    1   25 1
     3    1   26 1
     4    1   27 1
     5    2    7 ar
     6    2    3 ar
     7    3    4 ar
     8    3   28 1
     9    4    5 ar
    10    4   29 1
    11    5    6 ar
    12    5   30 1
    13    6   10 1
    14    6    7 ar
    15    7    8 1
    16    8    9 2
    17    9   10 1
    18    9   11 1
    19   11   12 1
    20   12   13 2
    21   12   14 2
    22   12   15 1
    23   15   20 ar
    24   15   16 ar
    25   16   17 ar
    26   16   31 1
    27   17   18 ar
    28   17   32 1
    29   18   24 1
    30   18   19 ar
    31   19   20 ar
    32   19   21 1
    33   20   33 1
    34   21   22 1
    35   21   34 1
    36   21   35 1
    37   22   23 1
    38   22   36 1
    39   22   37 1
    40   23   24 1
    41   23   38 1
    42   23   39 1
    43   24   40 1
    44   24   41 1
@<TRIPOS>MOLECULE
ZINC43726845
   63    66     0     0     0
SMALL
USER_CHARGES

@<TRIPOS>ATOM
      1 C1          1.0211   -0.2285   -1.1627 C.3       1 <0>        -0.1476
      2 C2          0.0974    0.0507    0.0246 C.3       1 <0>        -0.0923
      3 H1         -0.0086    1.1274    0.1571 H         1 <0>         0.0671
      4 C3         -1.2764   -0.5681   -0.2416 C.3       1 <0>        -0.0945
      5 C4         -1.8939    0.0763   -1.4842 C.3       1 <0>        -0.1858
      6 C5         -3.2470   -0.5332   -1.7463 C.2       1 <0>         0.4876
      7 O1         -3.6775   -1.4024   -1.0077 O.co2     1 <0>        -0.6987
      8 O2         -3.9112   -0.1570   -2.6970 O.co2     1 <0>        -0.7122
      9 C6          0.6962   -0.5627    1.2919 C.3       1 <0>        -0.0758
     10 H2          1.7281   -0.2339    1.4149 H         1 <0>         0.0618
     11 C7          0.6365   -2.0996    1.2147 C.3       1 <0>        -0.1240
     12 C8         -0.2728   -2.5648    2.3751 C.3       1 <0>        -0.1111
     13 C9         -1.1389   -1.3263    2.6713 C.3       1 <0>        -0.0801
     14 H3         -1.9178   -1.2367    1.9142 H         1 <0>         0.0972
     15 C10        -0.1448   -0.1538    2.5306 C.3       1 <0>        -0.0468
     16 C11         0.8187   -0.0979    3.7166 C.3       1 <0>        -0.1023
     17 C12         0.0726   -0.0984    5.0504 C.3       1 <0>        -0.1143
     18 C13        -0.7296   -1.3973    5.1413 C.3       1 <0>        -0.0662
     19 H4         -0.0650   -2.2491    4.9971 H         1 <0>         0.0754
     20 C14        -1.7675   -1.3675    4.0382 C.3       1 <0>        -0.0469
     21 H5         -2.3417   -0.4487    4.1576 H         1 <0>         0.0758
     22 C15        -2.7232   -2.5005    4.2235 C.2       1 <0>        -0.1291
     23 C16        -2.8601   -3.1523    5.3376 C.2       1 <0>        -0.1669
     24 C17        -2.0581   -2.8723    6.5817 C.3       1 <0>        -0.0370
     25 H6         -2.7123   -2.9083    7.4528 H         1 <0>         0.0705
     26 C18        -1.4406   -1.5241    6.4823 C.3       1 <0>        -0.0453
     27 C19        -0.4963   -1.2731    7.6455 C.3       1 <0>        -0.1074
     28 C20         0.5667   -2.3703    7.7185 C.3       1 <0>        -0.1214
     29 C21        -0.1304   -3.7225    7.8952 C.3       1 <0>        -0.1175
     30 C22        -0.9774   -3.9507    6.7079 C.3       1 <0>        -0.1094
     31 C23        -2.5452   -0.4670    6.5405 C.3       1 <0>        -0.1508
     32 C24        -0.8688    1.1757    2.3087 C.3       1 <0>        -0.1455
     33 H7          1.1840   -1.3026   -1.2516 H         1 <0>         0.0509
     34 H8          0.5610    0.1461   -2.0770 H         1 <0>         0.0575
     35 H9          1.9765    0.2720   -1.0053 H         1 <0>         0.0421
     36 H10        -1.1665   -1.6402   -0.4048 H         1 <0>         0.0612
     37 H11        -1.9250   -0.3960    0.6174 H         1 <0>         0.0727
     38 H12        -2.0038    1.1484   -1.3210 H         1 <0>         0.0503
     39 H13        -1.2453   -0.0958   -2.3432 H         1 <0>         0.0551
     40 H14         0.2114   -2.4093    0.2599 H         1 <0>         0.0748
     41 H15         1.6359   -2.5185    1.3324 H         1 <0>         0.0507
     42 H16        -0.8957   -3.4029    2.0625 H         1 <0>         0.0614
     43 H17         0.3242   -2.8331    3.2467 H         1 <0>         0.0587
     44 H18         1.4799   -0.9636    3.6788 H         1 <0>         0.0588
     45 H19         1.4185    0.8094    3.6451 H         1 <0>         0.0536
     46 H20         0.7868   -0.0480    5.8723 H         1 <0>         0.0604
     47 H21        -0.6029    0.7559    5.0953 H         1 <0>         0.0626
     48 H22        -3.3351   -2.7937    3.3832 H         1 <0>         0.1052
     49 H23        -3.5941   -3.9436    5.3752 H         1 <0>         0.0976
     50 H24        -0.0088   -0.3074    7.5119 H         1 <0>         0.0647
     51 H25        -1.0653   -1.2604    8.5752 H         1 <0>         0.0572
     52 H26         1.1486   -2.3770    6.7969 H         1 <0>         0.0640
     53 H27         1.2251   -2.1851    8.5672 H         1 <0>         0.0554
     54 H28         0.6180   -4.5105    7.9794 H         1 <0>         0.0593
     55 H29        -0.7435   -3.7019    8.7962 H         1 <0>         0.0598
     56 H30        -1.4514   -4.9250    6.8276 H         1 <0>         0.0544
     57 H31        -0.3660   -3.9569    5.8055 H         1 <0>         0.0663
     58 H32        -3.2502   -0.6330    5.7259 H         1 <0>         0.0647
     59 H33        -3.0681   -0.5401    7.4941 H         1 <0>         0.0468
     60 H34        -2.1043    0.5250    6.4430 H         1 <0>         0.0539
     61 H35        -1.4859    1.1083    1.4128 H         1 <0>         0.0745
     62 H36        -1.5007    1.3934    3.1697 H         1 <0>         0.0493
     63 H37        -0.1354    1.9727    2.1856 H         1 <0>         0.0495
@<TRIPOS>BOND
     1    1    2 1
     2    1   33 1
     3    1   34 1
     4    1   35 1
     5    2    3 1
     6    2    4 1
     7    2    9 1
     8    4    5 1
     9    4   36 1
    10    4   37 1
    11    5    6 1
    12    5   38 1
    13    5   39 1
    14    6    7 2
    15    6    8 1
    16    9   10 1
    17    9   15 1
    18    9   11 1
    19   11   12 1
    20   11   40 1
    21   11   41 1
    22   12   13 1
    23   12   42 1
    24   12   43 1
    25   13   14 1
    26   13   20 1
    27   13   15 1
    28   15   16 1
    29   15   32 1
    30   16   17 1
    31   16   44 1
    32   16   45 1
    33   17   18 1
    34   17   46 1
    35   17   47 1
    36   18   19 1
    37   18   26 1
    38   18   20 1
    39   20   21 1
    40   20   22 1
    41   22   23 2
    42   22   48 1
    43   23   24 1
    44   23   49 1
    45   24   25 1
    46   24   30 1
    47   24   26 1
    48   26   27 1
    49   26   31 1
    50   27   28 1
    51   27   50 1
    52   27   51 1
    53   28   29 1
    54   28   52 1
    55   28   53 1
    56   29   30 1
    57   29   54 1
    58   29   55 1
    59   30   56 1
    60   30   57 1
    61   31   58 1
    62   31   59 1
    63   31   60 1
    64   32   61 1
    65   32   62 1
    66   32   63 1
@<TRIPOS>MOLECULE
ZINC59168885
   47    50     0     0     0
SMALL
USER_CHARGES

@<TRIPOS>ATOM
      1 C1         -0.3174    1.8399    0.3139 C.3       1 <0>        -0.1568
      2 C2         -0.0038    0.3738    0.1614 C.2       1 <0>         0.1987
      3 N1          0.2222   -0.3539    1.2113 N.2       1 <0>        -0.2338
      4 N2          0.1306    0.2128    2.4893 N.pl3     1 <0>        -0.3570
      5 C3         -0.9863    0.3009    3.2780 C.2       1 <0>         0.1287
      6 N3         -0.6346    0.8971    4.3827 N.2       1 <0>        -0.2864
      7 N4          0.6161    1.1903    4.3491 N.2       1 <0>        -0.3391
      8 C4          1.1397    0.7890    3.2134 C.2       1 <0>         0.3795
      9 S1          2.8205    0.9632    2.7144 S.3       1 <0>        -0.8055
     10 C5         -2.3655   -0.1984    2.9324 C.3       1 <0>         0.0222
     11 C6         -2.5281   -1.6111    3.4315 C.ar      1 <0>        -0.0730
     12 C7         -2.1892   -2.6752    2.6169 C.ar      1 <0>        -0.1027
     13 C8         -2.3383   -3.9710    3.0747 C.ar      1 <0>        -0.1227
     14 C9         -2.8259   -4.2026    4.3474 C.ar      1 <0>        -0.1255
     15 C10        -3.1639   -3.1384    5.1623 C.ar      1 <0>        -0.1237
     16 C11        -3.0107   -1.8425    4.7060 C.ar      1 <0>        -0.1016
     17 C12         0.0462   -0.2338   -1.1817 C.ar      1 <0>        -0.0514
     18 C13        -0.1905    0.5456   -2.3167 C.ar      1 <0>        -0.0874
     19 C14        -0.1427   -0.0362   -3.5628 C.ar      1 <0>        -0.1270
     20 C15         0.1398   -1.3906   -3.7055 C.ar      1 <0>        -0.0612
     21 C16         0.3794   -2.1643   -2.5901 C.ar      1 <0>        -0.0828
     22 C17         0.3357   -1.5891   -1.3295 C.ar      1 <0>        -0.0674
     23 C18         0.7067   -3.6323   -2.6770 C.3       1 <0>        -0.0818
     24 C19         0.3050   -4.1930   -4.0396 C.3       1 <0>        -0.1187
     25 C20         0.9015   -3.2929   -5.1280 C.3       1 <0>        -0.1210
     26 C21         0.1660   -1.9547   -5.1026 C.3       1 <0>        -0.0811
     27 H1          0.5971    2.4212    0.1959 H         1 <0>         0.0953
     28 H2         -1.0384    2.1383   -0.4471 H         1 <0>         0.0809
     29 H3         -0.7376    2.0205    1.3033 H         1 <0>         0.0731
     30 H4         -3.1120    0.4414    3.4030 H         1 <0>         0.0975
     31 H5         -2.4990   -0.1776    1.8508 H         1 <0>         0.0753
     32 H6         -1.8083   -2.4943    1.6226 H         1 <0>         0.1188
     33 H7         -2.0743   -4.8024    2.4380 H         1 <0>         0.1182
     34 H8         -2.9430   -5.2150    4.7048 H         1 <0>         0.1172
     35 H9         -3.5451   -3.3194    6.1565 H         1 <0>         0.1195
     36 H10        -3.2713   -1.0110    5.3441 H         1 <0>         0.1248
     37 H11        -0.4100    1.5983   -2.2167 H         1 <0>         0.1299
     38 H12        -0.3272    0.5658   -4.4403 H         1 <0>         0.1249
     39 H13         0.5231   -2.1960   -0.4561 H         1 <0>         0.1346
     40 H14         1.7783   -3.7706   -2.5333 H         1 <0>         0.0776
     41 H15         0.1679   -4.1675   -1.8951 H         1 <0>         0.0757
     42 H16         0.6921   -5.2062   -4.1482 H         1 <0>         0.0668
     43 H17        -0.7815   -4.2034   -4.1264 H         1 <0>         0.0649
     44 H18         1.9617   -3.1330   -4.9318 H         1 <0>         0.0666
     45 H19         0.7748   -3.7629   -6.1032 H         1 <0>         0.0662
     46 H20        -0.8566   -2.0999   -5.4508 H         1 <0>         0.0762
     47 H21         0.6740   -1.2529   -5.7641 H         1 <0>         0.0747
@<TRIPOS>BOND
     1    1    2 1
     2    1   27 1
     3    1   28 1
     4    1   29 1
     5    2    3 2
     6    2   17 1
     7    3    4 1
     8    4    8 1
     9    4    5 1
    10    5    6 2
    11    5   10 1
    12    6    7 1
    13    7    8 2
    14    8    9 1
    15   10   11 1
    16   10   30 1
    17   10   31 1
    18   11   16 ar
    19   11   12 ar
    20   12   13 ar
    21   12   32 1
    22   13   14 ar
    23   13   33 1
    24   14   15 ar
    25   14   34 1
    26   15   16 ar
    27   15   35 1
    28   16   36 1
    29   17   22 ar
    30   17   18 ar
    31   18   19 ar
    32   18   37 1
    33   19   20 ar
    34   19   38 1
    35   20   26 1
    36   20   21 ar
    37   21   22 ar
    38   21   23 1
    39   22   39 1
    40   23   24 1
    41   23   40 1
    42   23   41 1
    43   24   25 1
    44   24   42 1
    45   24   43 1
    46   25   26 1
    47   25   44 1
    48   25   45 1
    49   26   46 1
    50   26   47 1
@<TRIPOS>MOLECULE
ZINC05371676
   45    47     0     0     0
SMALL
USER_CHARGES
3-[5-[(4-isopropylphenyl)methylene]-4-oxo-2-thioxo-thiazolidin-3-yl]-4-methyl-benzoic acid
@<TRIPOS>ATOM
      1 C1          4.2164    3.4166   -0.4007 C.3       1 <0>        -0.1106
      2 C2          3.0308    2.5574   -0.0442 C.ar      1 <0>        -0.0580
      3 C3          1.7688    3.1184    0.0230 C.ar      1 <0>        -0.1290
      4 C4          0.6777    2.3372    0.3434 C.ar      1 <0>        -0.0491
      5 C5          0.8478    0.9773    0.6126 C.ar      1 <0>        -0.1061
      6 C6          2.1213    0.4118    0.5446 C.ar      1 <0>        -0.0452
      7 C7          3.2098    1.2044    0.2161 C.ar      1 <0>         0.0633
      8 N1          4.4913    0.6412    0.1469 N.am      1 <0>        -0.4638
      9 C8          5.2483    0.6231    1.2310 C.2       1 <0>         0.5400
     10 O1          4.8614    1.0829    2.2892 O.2       1 <0>        -0.4406
     11 C9          6.5870    0.0114    1.0927 C.2       1 <0>        -0.2305
     12 C10         7.5643   -0.1489    2.0193 C.2       1 <0>         0.0759
     13 C11         8.7629   -0.9357    1.6948 C.ar      1 <0>        -0.0978
     14 C12         8.8215   -1.6699    0.5049 C.ar      1 <0>        -0.0828
     15 C13         9.9514   -2.4010    0.2056 C.ar      1 <0>        -0.1114
     16 C14        11.0213   -2.4192    1.0836 C.ar      1 <0>        -0.0504
     17 C15        10.9692   -1.6999    2.2651 C.ar      1 <0>        -0.1220
     18 C16         9.8490   -0.9591    2.5767 C.ar      1 <0>        -0.0737
     19 C17        12.2499   -3.2262    0.7512 C.3       1 <0>        -0.0610
     20 C18        11.8669   -4.6999    0.6012 C.3       1 <0>        -0.1469
     21 C19        12.8530   -2.7199   -0.5606 C.3       1 <0>        -0.1465
     22 S1          6.5658   -0.4532   -0.6334 S.3       1 <0>         0.0621
     23 C20         4.9260    0.1351   -1.0249 C.2       1 <0>         0.2630
     24 S2          4.1044    0.0719   -2.5255 S.2       1 <0>        -0.3165
     25 C21        -0.3177    0.1394    0.9621 C.2       1 <0>         0.4925
     26 O2         -0.1681   -1.0442    1.1909 O.co2     1 <0>        -0.6274
     27 H1          4.3559    3.4129   -1.4817 H         1 <0>         0.0746
     28 H2          4.0409    4.4372   -0.0604 H         1 <0>         0.0738
     29 H3          5.1100    3.0212    0.0823 H         1 <0>         0.0487
     30 H4          1.6362    4.1707   -0.1805 H         1 <0>         0.1292
     31 H5         -0.3071    2.7781    0.3902 H         1 <0>         0.1407
     32 H6          2.2587   -0.6400    0.7476 H         1 <0>         0.1286
     33 H7          7.4619    0.3014    2.9956 H         1 <0>         0.1630
     34 H8          7.9858   -1.6602   -0.1791 H         1 <0>         0.1316
     35 H9         10.0002   -2.9643   -0.7145 H         1 <0>         0.1314
     36 H10        11.8082   -1.7194    2.9449 H         1 <0>         0.1300
     37 H11         9.8100   -0.3982    3.4988 H         1 <0>         0.1346
     38 H12        12.9816   -3.1206    1.5521 H         1 <0>         0.0805
     39 H13        11.4372   -5.0605    1.5358 H         1 <0>         0.0575
     40 H14        11.1351   -4.8054   -0.1997 H         1 <0>         0.0594
     41 H15        12.7555   -5.2835    0.3608 H         1 <0>         0.0603
     42 H16        13.1259   -1.6701   -0.4538 H         1 <0>         0.0572
     43 H17        13.7416   -3.3036   -0.8011 H         1 <0>         0.0602
     44 H18        12.1213   -2.8255   -1.3616 H         1 <0>         0.0594
     45 O3         -1.5472    0.6867    1.0216 O.co2     1 <0>        -0.7481
@<TRIPOS>BOND
     1    1    2 1
     2    1   27 1
     3    1   28 1
     4    1   29 1
     5    2    7 ar
     6    2    3 ar
     7    3    4 ar
     8    3   30 1
     9    4    5 ar
    10    4   31 1
    11    5    6 ar
    12    5   25 1
    13    6    7 ar
    14    6   32 1
    15    7    8 1
    16    8   23 1
    17    8    9 am
    18    9   10 2
    19    9   11 1
    20   11   12 2
    21   11   22 1
    22   12   13 1
    23   12   33 1
    24   13   18 ar
    25   13   14 ar
    26   14   15 ar
    27   14   34 1
    28   15   16 ar
    29   15   35 1
    30   16   17 ar
    31   16   19 1
    32   17   18 ar
    33   17   36 1
    34   18   37 1
    35   19   20 1
    36   19   21 1
    37   19   38 1
    38   20   39 1
    39   20   40 1
    40   20   41 1
    41   21   42 1
    42   21   43 1
    43   21   44 1
    44   22   23 1
    45   23   24 2
    46   25   26 2
    47   25   45 1
@<TRIPOS>MOLECULE
ZINC28632224
   20    21     0     0     0
SMALL
USER_CHARGES
3,6,8-tribromo-7-hydroxy-4-methyl-chromen-2-one
@<TRIPOS>ATOM
      1 C1         -0.0184    1.5028    0.0103 C.3       1 <0>        -0.1378
      2 C2          0.0021   -0.0041    0.0020 C.2       1 <0>         0.1184
      3 C3         -0.0059   -0.7494   -1.2586 C.ar      1 <0>        -0.2786
      4 C4         -0.0327   -0.0831   -2.4892 C.ar      1 <0>         0.0268
      5 C5         -0.0401   -0.8019   -3.6501 C.ar      1 <0>        -0.2073
      6 C6         -0.0216   -2.1955   -3.6176 C.ar      1 <0>         0.3477
      7 C7          0.0163   -2.8709   -2.4085 C.ar      1 <0>        -0.2467
      8 C8          0.0188   -2.1557   -1.2193 C.ar      1 <0>         0.2366
      9 O1          0.0388   -2.7950   -0.0299 O.3       1 <0>        -0.2572
     10 C9          0.0411   -2.1186    1.1293 C.2       1 <0>         0.5275
     11 O2          0.0599   -2.7380    2.1779 O.2       1 <0>        -0.4730
     12 C10         0.0227   -0.7081    1.1641 C.2       1 <0>        -0.3081
     13 Br1         0.0273    0.1997    2.8229 Br        1 <0>        -0.0249
     14 Br2         0.0423   -4.7614   -2.3784 Br        1 <0>        -0.0485
     15 O3         -0.0293   -2.8964   -4.7806 O.3       1 <0>        -0.6122
     16 Br3        -0.0764    0.0987   -5.3125 Br        1 <0>        -0.0613
     17 H1         -0.0333    1.8750   -1.0247 H         1 <0>         0.0818
     18 H2          0.8796    1.8789    0.5223 H         1 <0>         0.0919
     19 H3         -0.9165    1.8544    0.5393 H         1 <0>         0.0920
     20 H4         -0.0479    0.9963   -2.5205 H         1 <0>         0.1330
@<TRIPOS>BOND
     1    1    2 1
     2    1   17 1
     3    1   18 1
     4    1   19 1
     5    2   12 2
     6    2    3 1
     7    3    8 ar
     8    3    4 ar
     9    4    5 ar
    10    4   20 1
    11    5    6 ar
    12    5   16 1
    13    6    7 ar
    14    6   15 1
    15    7    8 ar
    16    7   14 1
    17    8    9 1
    18    9   10 1
    19   10   11 2
    20   10   12 1
    21   12   13 1
@<TRIPOS>MOLECULE
ZINC05763504
   38    40     0     0     0
SMALL
USER_CHARGES

@<TRIPOS>ATOM
      1 C1         -0.4853    1.6014    0.3677 C.ar      1 <0>        -0.0741
      2 C2          0.6543    2.3761    0.4744 C.ar      1 <0>        -0.1142
      3 C3          1.8937    1.7713    0.5853 C.ar      1 <0>        -0.0328
      4 C4          1.9915    0.3913    0.5892 C.ar      1 <0>        -0.1170
      5 C5          0.8511   -0.3824    0.4824 C.ar      1 <0>        -0.0954
      6 C6         -0.3869    0.2225    0.3716 C.ar      1 <0>        -0.0937
      7 C7         -1.6300   -0.6216    0.2556 C.3       1 <0>         0.1412
      8 N1         -1.9078   -0.8901   -1.1575 N.am      1 <0>        -0.5205
      9 C8         -1.3742   -1.9928   -1.7459 C.2       1 <0>         0.1031
     10 C9         -1.6116   -2.2678   -3.0463 C.2       1 <0>        -0.2487
     11 C10        -2.4231   -1.4037   -3.8083 C.2       1 <0>         0.3240
     12 O1         -2.6709   -1.6662   -5.1139 O.3       1 <0>        -0.6692
     13 C11        -2.9627   -0.2841   -3.2027 C.2       1 <0>        -0.4349
     14 C12        -2.6919   -0.0437   -1.8506 C.2       1 <0>         0.5334
     15 O2         -3.1643    0.9385   -1.2998 O.2       1 <0>        -0.6146
     16 C13        -3.8351    0.6622   -3.9866 C.3       1 <0>         0.0265
     17 C14        -3.0028    1.8140   -4.4882 C.ar      1 <0>        -0.0312
     18 C15        -2.7809    2.9111   -3.6770 C.ar      1 <0>        -0.0888
     19 C16        -2.0177    3.9677   -4.1363 C.ar      1 <0>        -0.1181
     20 C17        -1.4747    3.9279   -5.4085 C.ar      1 <0>        -0.0430
     21 C18        -1.6960    2.8303   -6.2204 C.ar      1 <0>        -0.1168
     22 C19        -2.4562    1.7707   -5.7583 C.ar      1 <0>        -0.0272
     23 Cl1        -2.7294    0.3899   -6.7744 Cl        1 <0>        -0.0216
     24 Cl2        -0.5165    5.2555   -5.9855 Cl        1 <0>        -0.0864
     25 Cl3         3.3256    2.7437    0.7188 Cl        1 <0>        -0.0801
     26 H1         -1.4532    2.0734    0.2856 H         1 <0>         0.1421
     27 H2          0.5774    3.4534    0.4709 H         1 <0>         0.1310
     28 H3          2.9587   -0.0814    0.6754 H         1 <0>         0.1303
     29 H4          0.9274   -1.4597    0.4851 H         1 <0>         0.1290
     30 H5         -1.4794   -1.5642    0.7818 H         1 <0>         0.0830
     31 H6         -2.4728   -0.0897    0.6969 H         1 <0>         0.1005
     32 H7         -0.7517   -2.6578   -1.1657 H         1 <0>         0.1318
     33 H8         -1.1805   -3.1474   -3.5013 H         1 <0>         0.1193
     34 H9         -4.2737    0.1348   -4.8337 H         1 <0>         0.0773
     35 H10        -4.6296    1.0410   -3.3436 H         1 <0>         0.0535
     36 H11        -3.2044    2.9427   -2.6840 H         1 <0>         0.1445
     37 H12        -1.8452    4.8249   -3.5023 H         1 <0>         0.1265
     38 H13        -1.2725    2.7987   -7.2134 H         1 <0>         0.1313
@<TRIPOS>BOND
     1    1    6 ar
     2    1    2 ar
     3    1   26 1
     4    2    3 ar
     5    2   27 1
     6    3    4 ar
     7    3   25 1
     8    4    5 ar
     9    4   28 1
    10    5    6 ar
    11    5   29 1
    12    6    7 1
    13    7   30 1
    14    7   31 1
    15    7    8 1
    16    8    9 1
    17    8   14 am
    18    9   32 1
    19    9   10 2
    20   10   33 1
    21   10   11 1
    22   11   12 1
    23   11   13 2
    24   13   16 1
    25   13   14 1
    26   14   15 2
    27   16   17 1
    28   16   34 1
    29   16   35 1
    30   17   22 ar
    31   17   18 ar
    32   18   19 ar
    33   18   36 1
    34   19   20 ar
    35   19   37 1
    36   20   21 ar
    37   20   24 1
    38   21   22 ar
    39   21   38 1
    40   22   23 1
@<TRIPOS>MOLECULE
ZINC43461105
   23    25     0     0     0
SMALL
USER_CHARGES

@<TRIPOS>ATOM
      1 C1         -0.0167    1.3776    0.0096 C.ar      1 <0>        -0.1149
      2 C2          1.1840    2.0885    0.0020 C.ar      1 <0>         0.0676
      3 C3          2.3968    1.3990   -0.0133 C.ar      1 <0>        -0.0757
      4 C4          2.4034    0.0181   -0.0208 C.ar      1 <0>        -0.0674
      5 C5          1.2102   -0.6827   -0.0136 C.ar      1 <0>        -0.1386
      6 C6          0.0021   -0.0041    0.0020 C.ar      1 <0>         0.1003
      7 F1         -1.1592   -0.6944    0.0098 F         1 <0>        -0.1369
      8 Br1         4.0467   -0.9173   -0.0415 Br        1 <0>        -0.0476
      9 C7          1.1711    3.5674    0.0095 C.2       1 <0>         0.2267
     10 N1          0.0922    4.3124    0.0291 N.2       1 <0>        -0.5429
     11 C8          0.4362    5.6167    0.0305 C.ar      1 <0>         0.2052
     12 C9          1.8422    5.6723    0.0102 C.ar      1 <0>        -0.0318
     13 N2          2.2828    4.3642    0.0032 N.2       1 <0>        -0.5550
     14 C10         2.4768    6.9075    0.0071 C.ar      1 <0>        -0.0091
     15 C11         1.6906    8.0479    0.0242 C.ar      1 <0>        -0.1746
     16 C12         0.3092    7.9236    0.0439 C.ar      1 <0>         0.1154
     17 N3         -0.2730    6.7445    0.0459 N.ar      1 <0>        -0.4548
     18 Br2         2.4938    9.7598    0.0216 Br        1 <0>        -0.0758
     19 H1         -0.9584    1.9060    0.0260 H         1 <0>         0.1513
     20 H2          3.3290    1.9443   -0.0196 H         1 <0>         0.1486
     21 H3          1.2205   -1.7626   -0.0199 H         1 <0>         0.1403
     22 H4          3.5545    6.9772   -0.0080 H         1 <0>         0.1219
     23 H5         -0.3013    8.8144    0.0572 H         1 <0>         0.1479
@<TRIPOS>BOND
     1    1    6 ar
     2    1    2 ar
     3    1   19 1
     4    2    3 ar
     5    2    9 1
     6    3    4 ar
     7    3   20 1
     8    4    5 ar
     9    4    8 1
    10    5    6 ar
    11    5   21 1
    12    6    7 1
    13    9   13 1
    14    9   10 2
    15   10   11 1
    16   11   12 ar
    17   11   17 ar
    18   12   14 ar
    19   12   13 1
    20   14   15 ar
    21   14   22 1
    22   15   16 ar
    23   15   18 1
    24   16   23 1
    25   16   17 ar
@<TRIPOS>MOLECULE
ZINC59198518
   42    44     0     0     0
SMALL
USER_CHARGES

@<TRIPOS>ATOM
      1 C1          0.5079   -0.0366   -1.0814 C.3       1 <0>        -0.1444
      2 C2         -0.1768    0.1427    0.2750 C.3       1 <0>        -0.0576
      3 C3         -0.4218    1.6313    0.5298 C.3       1 <0>        -0.1432
      4 C4         -1.4937   -0.5901    0.2736 C.ar      1 <0>        -0.0514
      5 C5         -2.4689   -0.2509   -0.6492 C.ar      1 <0>        -0.1348
      6 C6         -3.6758   -0.9156   -0.6583 C.ar      1 <0>         0.0089
      7 C7         -3.9149   -1.9381    0.2706 C.ar      1 <0>        -0.1013
      8 C8         -2.9216   -2.2745    1.2010 C.ar      1 <0>        -0.0793
      9 C9         -1.7188   -1.6022    1.1915 C.ar      1 <0>        -0.1452
     10 C10        -5.1951   -2.6505    0.2693 C.2       1 <0>         0.0890
     11 C11        -5.7737   -3.0299   -0.9274 C.2       1 <0>        -0.2709
     12 C12        -5.0142   -3.0136   -2.1896 C.2       1 <0>         0.4934
     13 O1         -3.7216   -2.6251   -2.2130 O.3       1 <0>        -0.5720
     14 N1         -5.6272   -3.3883   -3.2975 N.2       1 <0>        -0.5922
     15 C13        -6.9003   -3.7766   -3.3054 C.2       1 <0>         0.5417
     16 S1         -7.5942   -4.2416   -4.7997 S.2       1 <0>        -0.6485
     17 N2         -7.6695   -3.8243   -2.2081 N.am      1 <0>        -0.5143
     18 C14        -7.1809   -3.4762   -0.9982 C.2       1 <0>         0.5613
     19 O2         -7.8766   -3.5239   -0.0013 O.2       1 <0>        -0.5008
     20 C15        -9.0005   -4.2480   -2.3177 C.ar      1 <0>         0.1753
     21 C16       -10.0211   -3.3131   -2.4289 C.ar      1 <0>        -0.0886
     22 C17       -11.3322   -3.7334   -2.5372 C.ar      1 <0>        -0.0809
     23 C18       -11.6292   -5.0847   -2.5346 C.ar      1 <0>        -0.0857
     24 C19       -10.6142   -6.0185   -2.4234 C.ar      1 <0>        -0.0810
     25 C20        -9.3008   -5.6036   -2.3210 C.ar      1 <0>        -0.0796
     26 Br1       -13.4256   -5.6566   -2.6825 Br        1 <0>        -0.0595
     27 H1          1.4604    0.4934   -1.0805 H         1 <0>         0.0543
     28 H2          0.6824   -1.0971   -1.2630 H         1 <0>         0.0573
     29 H3         -0.1312    0.3662   -1.8672 H         1 <0>         0.0590
     30 H4          0.4623   -0.2601    1.0607 H         1 <0>         0.0747
     31 H5         -1.0609    2.0341   -0.2560 H         1 <0>         0.0578
     32 H6         -0.9097    1.7590    1.4961 H         1 <0>         0.0547
     33 H7          0.5307    2.1613    0.5308 H         1 <0>         0.0552
     34 H8         -2.2831    0.5373   -1.3637 H         1 <0>         0.1188
     35 H9         -4.4354   -0.6495   -1.3785 H         1 <0>         0.1171
     36 H10        -3.0971   -3.0606    1.9205 H         1 <0>         0.1209
     37 H11        -0.9508   -1.8629    1.9046 H         1 <0>         0.1185
     38 H12        -5.6867   -2.8792    1.2033 H         1 <0>         0.1426
     39 H13        -9.7898   -2.2581   -2.4303 H         1 <0>         0.1290
     40 H14       -12.1263   -3.0066   -2.6238 H         1 <0>         0.1355
     41 H15       -10.8488   -7.0727   -2.4208 H         1 <0>         0.1358
     42 H16        -8.5085   -6.3330   -2.2391 H         1 <0>         0.1302
@<TRIPOS>BOND
     1    1    2 1
     2    1   27 1
     3    1   28 1
     4    1   29 1
     5    2    3 1
     6    2    4 1
     7    2   30 1
     8    3   31 1
     9    3   32 1
    10    3   33 1
    11    4    9 ar
    12    4    5 ar
    13    5    6 ar
    14    5   34 1
    15    6    7 ar
    16    6   35 1
    17    7    8 ar
    18    7   10 1
    19    8    9 ar
    20    8   36 1
    21    9   37 1
    22   10   11 2
    23   10   38 1
    24   11   18 1
    25   11   12 1
    26   12   13 1
    27   12   14 2
    28   14   15 1
    29   15   16 2
    30   15   17 1
    31   17   18 am
    32   17   20 1
    33   18   19 2
    34   20   25 ar
    35   20   21 ar
    36   21   22 ar
    37   21   39 1
    38   22   23 ar
    39   22   40 1
    40   23   24 ar
    41   23   26 1
    42   24   25 ar
    43   24   41 1
    44   25   42 1
@<TRIPOS>MOLECULE
ZINC04793251
   33    36     0     0     0
SMALL
USER_CHARGES

@<TRIPOS>ATOM
      1 C1          3.3613   -4.0919   -2.4860 C.ar      1 <0>        -0.1372
      2 C2          2.4932   -5.0895   -2.8897 C.ar      1 <0>        -0.1058
      3 C3          1.2157   -5.1478   -2.3659 C.ar      1 <0>        -0.1338
      4 C4          0.8055   -4.2079   -1.4369 C.ar      1 <0>        -0.0375
      5 C5          1.6746   -3.2103   -1.0331 C.ar      1 <0>        -0.0995
      6 C6          2.9521   -3.1527   -1.5581 C.ar      1 <0>        -0.0595
      7 C7          1.2286   -2.1860   -0.0218 C.3       1 <0>         0.1279
      8 N1          1.3816   -2.7338    1.3283 N.pl3     1 <0>        -0.4688
      9 C8          2.6305   -2.9311    1.8410 C.2       1 <0>         0.5064
     10 O1          3.7276   -2.6256    1.1157 O.3       1 <0>        -0.6119
     11 C9          2.7523   -3.4504    3.1201 C.2       1 <0>        -0.1486
     12 C10         1.5777   -3.7514    3.8339 C.2       1 <0>         0.1935
     13 N2          0.3889   -3.5371    3.2798 N.2       1 <0>        -0.5227
     14 C11         0.2897   -3.0332    2.0547 C.2       1 <0>         0.4915
     15 S1         -1.2619   -2.7656    1.3826 S.2       1 <0>        -0.6487
     16 C12         2.0286   -4.2760    5.1330 C.ar      1 <0>        -0.1240
     17 C13         1.3700   -4.7441    6.2679 C.ar      1 <0>        -0.0191
     18 C14         2.1020   -5.1793    7.3524 C.ar      1 <0>        -0.0761
     19 C15         3.4889   -5.1512    7.3139 C.ar      1 <0>        -0.0628
     20 C16         4.1510   -4.6897    6.1967 C.ar      1 <0>        -0.1172
     21 C17         3.4312   -4.2468    5.0923 C.ar      1 <0>         0.1154
     22 O2          3.8175   -3.7559    3.8947 O.3       1 <0>        -0.1651
     23 Cl1         1.2867   -5.7632    8.7695 Cl        1 <0>        -0.0692
     24 Cl2        -0.7993   -4.2802   -0.7789 Cl        1 <0>        -0.0099
     25 H1          4.3609   -4.0492   -2.8925 H         1 <0>         0.1223
     26 H2          2.8134   -5.8230   -3.6148 H         1 <0>         0.1228
     27 H3          0.5375   -5.9267   -2.6818 H         1 <0>         0.1261
     28 H4          3.6306   -2.3737   -1.2432 H         1 <0>         0.1371
     29 H5          1.8385   -1.2881   -0.1208 H         1 <0>         0.0921
     30 H6          0.1821   -1.9354   -0.1957 H         1 <0>         0.1476
     31 H7          0.2907   -4.7658    6.2982 H         1 <0>         0.1447
     32 H8          4.0549   -5.4938    8.1675 H         1 <0>         0.1455
     33 H9          5.2307   -4.6723    6.1787 H         1 <0>         0.1445
@<TRIPOS>BOND
     1    1    6 ar
     2    1    2 ar
     3    1   25 1
     4    2    3 ar
     5    2   26 1
     6    3    4 ar
     7    3   27 1
     8    4    5 ar
     9    4   24 1
    10    5    6 ar
    11    5    7 1
    12    6   28 1
    13    7    8 1
    14    7   29 1
    15    7   30 1
    16    8   14 1
    17    8    9 1
    18    9   10 1
    19    9   11 2
    20   11   22 1
    21   11   12 1
    22   12   16 1
    23   12   13 2
    24   13   14 1
    25   14   15 2
    26   16   21 ar
    27   16   17 ar
    28   17   18 ar
    29   17   31 1
    30   18   19 ar
    31   18   23 1
    32   19   20 ar
    33   19   32 1
    34   20   21 ar
    35   20   33 1
    36   21   22 1
@<TRIPOS>MOLECULE
ZINC27230686
   44    48     0     0     0
SMALL
USER_CHARGES
(5Z)-5-[(1-methylindol-3-yl)methylene]-2-(2-naphthylamino)thiazol-4-one
@<TRIPOS>ATOM
      1 C1         -8.1857    4.7548   -0.5399 C.3       1 <0>         0.0722
      2 N1         -8.0985    3.2924   -0.5415 N.pl3     1 <0>        -0.4775
      3 C2         -6.9440    2.5861   -0.4506 C.2       1 <0>         0.0897
      4 C3         -7.2198    1.2468   -0.4819 C.2       1 <0>        -0.1586
      5 C4         -8.6847    1.1256   -0.6100 C.ar      1 <0>        -0.0826
      6 C5         -9.1793    2.4395   -0.6361 C.ar      1 <0>         0.0895
      7 C6        -10.5496    2.6501   -0.7478 C.ar      1 <0>        -0.1268
      8 C7        -11.4054    1.5738   -0.8414 C.ar      1 <0>        -0.1054
      9 C8        -10.9153    0.2767   -0.8118 C.ar      1 <0>        -0.1463
     10 C9         -9.5611    0.0476   -0.6967 C.ar      1 <0>        -0.0705
     11 C10        -6.2536    0.1519   -0.4090 C.2       1 <0>         0.0316
     12 C11        -4.9239    0.4235   -0.2970 C.2       1 <0>        -0.2074
     13 C12        -3.7741   -0.4992   -0.2079 C.2       1 <0>         0.5335
     14 O1         -3.9194   -1.7121   -0.2283 O.2       1 <0>        -0.5431
     15 N2         -2.5853    0.0545   -0.1057 N.2       1 <0>        -0.7107
     16 C13        -2.4138    1.3664   -0.0828 C.2       1 <0>         0.4461
     17 S1         -4.0798    1.9977   -0.2088 S.3       1 <0>        -0.1489
     18 N3         -1.2405    2.0711    0.0191 N.2       1 <0>        -0.5768
     19 C14        -0.0358    1.3955    0.2318 C.ar      1 <0>         0.1588
     20 C15         1.1610    1.9472   -0.2415 C.ar      1 <0>        -0.1054
     21 C16         2.3477    1.3150   -0.0436 C.ar      1 <0>        -0.1119
     22 C17         2.3829    0.0893    0.6445 C.ar      1 <0>        -0.0845
     23 C18         3.5954   -0.5863    0.8640 C.ar      1 <0>        -0.1001
     24 C19         3.5953   -1.7710    1.5342 C.ar      1 <0>        -0.1439
     25 C20         2.4087   -2.3278    2.0078 C.ar      1 <0>        -0.1276
     26 C21         1.2156   -1.7027    1.8137 C.ar      1 <0>        -0.1055
     27 C22         1.1760   -0.4767    1.1266 C.ar      1 <0>        -0.0265
     28 C23        -0.0372    0.1965    0.9097 C.ar      1 <0>        -0.1562
     29 H1         -7.1758    5.1822   -0.4537 H         1 <0>         0.0925
     30 H2         -8.7975    5.0847    0.3127 H         1 <0>         0.0749
     31 H3         -8.6493    5.0955   -1.4775 H         1 <0>         0.0748
     32 H4         -5.9568    3.0160   -0.3670 H         1 <0>         0.1835
     33 H5        -10.9415    3.6562   -0.7738 H         1 <0>         0.1167
     34 H6        -12.4684    1.7420   -0.9314 H         1 <0>         0.1225
     35 H7        -11.5978   -0.5576   -0.8789 H         1 <0>         0.1220
     36 H8         -9.1817   -0.9633   -0.6743 H         1 <0>         0.1249
     37 H9         -6.6008   -0.8913   -0.4446 H         1 <0>         0.1476
     38 H10         1.1409    2.8883   -0.7708 H         1 <0>         0.1180
     39 H11         3.2624    1.7536   -0.4141 H         1 <0>         0.1184
     40 H12         4.5229   -0.1676    0.5024 H         1 <0>         0.1159
     41 H13         4.5290   -2.2875    1.7012 H         1 <0>         0.1111
     42 H14         2.4364   -3.2693    2.5362 H         1 <0>         0.1124
     43 H15         0.3038   -2.1458    2.1862 H         1 <0>         0.1199
     44 H16        -0.9643   -0.2226    1.2721 H         1 <0>         0.1398
@<TRIPOS>BOND
     1    1    2 1
     2    1   29 1
     3    1   30 1
     4    1   31 1
     5    2    6 1
     6    2    3 1
     7    3    4 2
     8    3   32 1
     9    4    5 1
    10    4   11 1
    11    5   10 ar
    12    5    6 ar
    13    6    7 ar
    14    7    8 ar
    15    7   33 1
    16    8    9 ar
    17    8   34 1
    18    9   10 ar
    19    9   35 1
    20   10   36 1
    21   11   12 2
    22   11   37 1
    23   12   17 1
    24   12   13 1
    25   13   14 2
    26   13   15 1
    27   15   16 2
    28   16   17 1
    29   16   18 1
    30   18   19 1
    31   19   28 ar
    32   19   20 ar
    33   20   21 ar
    34   20   38 1
    35   21   22 ar
    36   21   39 1
    37   22   27 ar
    38   22   23 ar
    39   23   24 ar
    40   23   40 1
    41   24   25 ar
    42   24   41 1
    43   25   26 ar
    44   25   42 1
    45   26   27 ar
    46   26   43 1
    47   27   28 ar
    48   28   44 1
@<TRIPOS>MOLECULE
ZINC37385830
   29    30     0     0     0
SMALL
USER_CHARGES

@<TRIPOS>ATOM
      1 C1         -0.0184    1.5028    0.0103 C.3       1 <0>        -0.0785
      2 C2          0.0021   -0.0041    0.0020 C.ar      1 <0>        -0.1420
      3 C3          0.0058   -0.6888   -1.1976 C.ar      1 <0>        -0.0683
      4 C4          0.0250   -2.0722   -1.2060 C.ar      1 <0>        -0.1305
      5 C5          0.0401   -2.7739   -0.0131 C.ar      1 <0>        -0.0570
      6 C6          0.0360   -2.0946    1.1891 C.ar      1 <0>        -0.2524
      7 C7          0.0230   -0.7055    1.2004 C.ar      1 <0>         0.2905
      8 N1          0.0251   -0.0153    2.4155 N.2       1 <0>        -1.0718
      9 S1          0.0500   -0.8532    3.8437 S.o2      1 <0>         2.5908
     10 O1         -1.1852   -1.5507    3.9269 O.2       1 <0>        -1.0033
     11 O2          1.3051   -1.5168    3.9033 O.2       1 <0>        -1.0029
     12 C8          0.0462    0.3348    5.1449 C.ar      1 <0>        -0.6018
     13 C9          1.2424    0.8218    5.6405 C.ar      1 <0>         0.0642
     14 C10         1.2392    1.7550    6.6618 C.ar      1 <0>        -0.1106
     15 C11         0.0401    2.2010    7.1874 C.ar      1 <0>        -0.0350
     16 C12        -1.1560    1.7142    6.6920 C.ar      1 <0>        -0.1106
     17 C13        -1.1532    0.7849    5.6671 C.ar      1 <0>         0.0639
     18 Cl1        -2.6546    0.1793    5.0404 Cl        1 <0>        -0.0002
     19 Br1         0.0360    3.4761    8.5838 Br        1 <0>        -0.0274
     20 Cl2         2.7474    0.2616    4.9812 Cl        1 <0>        -0.0003
     21 Cl3         0.0297   -2.9295   -2.7155 Cl        1 <0>        -0.1170
     22 H1          1.0042    1.8801    0.0026 H         1 <0>         0.0498
     23 H2         -0.5455    1.8639   -0.8728 H         1 <0>         0.0399
     24 H3         -0.5286    1.8543    0.9071 H         1 <0>         0.0745
     25 H4         -0.0067   -0.1438   -2.1299 H         1 <0>         0.1148
     26 H5          0.0548   -3.8537   -0.0225 H         1 <0>         0.1117
     27 H6          0.0475   -2.6426    2.1196 H         1 <0>         0.1055
     28 H7          2.1731    2.1350    7.0490 H         1 <0>         0.1521
     29 H8         -2.0922    2.0626    7.1025 H         1 <0>         0.1521
@<TRIPOS>BOND
     1    1    2 1
     2    1   22 1
     3    1   23 1
     4    1   24 1
     5    2    7 ar
     6    2    3 ar
     7    3    4 ar
     8    3   25 1
     9    4    5 ar
    10    4   21 1
    11    5    6 ar
    12    5   26 1
    13    6    7 ar
    14    6   27 1
    15    7    8 1
    16    8    9 1
    17    9   10 2
    18    9   11 2
    19    9   12 1
    20   12   17 ar
    21   12   13 ar
    22   13   14 ar
    23   13   20 1
    24   14   15 ar
    25   14   28 1
    26   15   16 ar
    27   15   19 1
    28   16   17 ar
    29   16   29 1
    30   17   18 1
@<TRIPOS>MOLECULE
ZINC05454630
   27    29     0     0     0
SMALL
USER_CHARGES

@<TRIPOS>ATOM
      1 C1         -0.0167    1.3782    0.0096 C.ar      1 <0>        -0.0962
      2 C2          1.1707    2.0857    0.0021 C.ar      1 <0>        -0.0908
      3 C3          2.3778    1.4105   -0.0131 C.ar      1 <0>        -0.0911
      4 C4          2.3961    0.0274   -0.0207 C.ar      1 <0>        -0.0907
      5 C5          1.2082   -0.6793   -0.0132 C.ar      1 <0>        -0.0962
      6 C6          0.0021   -0.0041    0.0020 C.ar      1 <0>        -0.0459
      7 C7         -1.2928   -0.7750    0.0103 C.3       1 <0>        -0.0682
      8 S1         -1.8287   -1.0752   -1.6966 S.3       1 <0>        -0.0231
      9 C8         -3.3341   -1.9734   -1.5190 C.2       1 <0>         0.2031
     10 N1         -4.1041   -2.4267   -2.5518 N.2       1 <0>        -0.5529
     11 C9         -5.1912   -3.0782   -1.9945 C.ar      1 <0>        -0.0274
     12 C10        -6.2959   -3.7346   -2.5155 C.ar      1 <0>        -0.0144
     13 C11        -7.2099   -4.2852   -1.6296 C.ar      1 <0>        -0.1746
     14 C12        -6.9945   -4.1645   -0.2666 C.ar      1 <0>         0.1109
     15 N2         -5.9388   -3.5371    0.2077 N.ar      1 <0>        -0.4591
     16 C13        -5.0321   -2.9913   -0.5998 C.ar      1 <0>         0.2126
     17 N3         -3.8798   -2.3115   -0.3750 N.2       1 <0>        -0.5635
     18 Br1        -8.7375   -5.1926   -2.2769 Br        1 <0>        -0.0777
     19 Br2         4.0026    2.3779   -0.0240 Br        1 <0>        -0.0591
     20 H1         -0.9592    1.9053    0.0260 H         1 <0>         0.1361
     21 H2          1.1559    3.1656    0.0077 H         1 <0>         0.1331
     22 H3          3.3384   -0.5003   -0.0329 H         1 <0>         0.1331
     23 H4          1.2224   -1.7592   -0.0191 H         1 <0>         0.1361
     24 H5         -1.1448   -1.7283    0.5176 H         1 <0>         0.0992
     25 H6         -2.0553   -0.1990    0.5345 H         1 <0>         0.0993
     26 H7         -6.4409   -3.8146   -3.5828 H         1 <0>         0.1209
     27 H8         -7.7078   -4.5937    0.4215 H         1 <0>         0.1466
@<TRIPOS>BOND
     1    1    6 ar
     2    1    2 ar
     3    1   20 1
     4    2    3 ar
     5    2   21 1
     6    3    4 ar
     7    3   19 1
     8    4    5 ar
     9    4   22 1
    10    5    6 ar
    11    5   23 1
    12    6    7 1
    13    7    8 1
    14    7   24 1
    15    7   25 1
    16    8    9 1
    17    9   17 2
    18    9   10 1
    19   10   11 1
    20   11   16 ar
    21   11   12 ar
    22   12   13 ar
    23   12   26 1
    24   13   14 ar
    25   13   18 1
    26   14   15 ar
    27   14   27 1
    28   15   16 ar
    29   16   17 1
@<TRIPOS>MOLECULE
ZINC48430115
   26    27     0     0     0
SMALL
USER_CHARGES

@<TRIPOS>ATOM
      1 C1         -0.0167    1.3782    0.0096 C.ar      1 <0>        -0.0187
      2 C2          1.1708    2.0857    0.0021 C.ar      1 <0>        -0.1114
      3 C3          2.3776    1.4106   -0.0131 C.ar      1 <0>        -0.0633
      4 C4          2.3961    0.0278   -0.0207 C.ar      1 <0>        -0.1114
      5 C5          1.2083   -0.6792   -0.0132 C.ar      1 <0>        -0.0187
      6 C6          0.0021   -0.0041    0.0020 C.ar      1 <0>        -0.5981
      7 S1         -1.5118   -0.9056    0.0122 S.o2      1 <0>         2.6027
      8 O1         -1.2182   -2.1863    0.5533 O.2       1 <0>        -1.0223
      9 O2         -2.4923   -0.0463    0.5775 O.2       1 <0>        -1.0224
     10 N1         -1.9482   -1.1476   -1.5668 N.2       1 <0>        -1.0814
     11 C7         -3.1227   -1.8435   -1.8687 C.ar      1 <0>         0.2842
     12 C8         -3.9271   -2.3273   -0.8448 C.ar      1 <0>        -0.2366
     13 C9         -5.0870   -3.0146   -1.1447 C.ar      1 <0>        -0.0805
     14 C10        -5.4485   -3.2222   -2.4649 C.ar      1 <0>        -0.0095
     15 C11        -4.6480   -2.7407   -3.4883 C.ar      1 <0>        -0.0165
     16 C12        -3.4895   -2.0470   -3.1923 C.ar      1 <0>        -0.1503
     17 Cl1        -5.1036   -3.0030   -5.1428 Cl        1 <0>        -0.0827
     18 F1         -6.5830   -3.8956   -2.7558 F         1 <0>        -0.1507
     19 I1          4.1776    2.4824   -0.0252 I         1 <0>        -0.0464
     20 H1         -0.9592    1.9053    0.0260 H         1 <0>         0.1463
     21 H2          1.1560    3.1655    0.0077 H         1 <0>         0.1340
     22 H3          3.3384   -0.4997   -0.0329 H         1 <0>         0.1340
     23 H4          1.2227   -1.7591   -0.0191 H         1 <0>         0.1463
     24 H5         -3.6454   -2.1664    0.1853 H         1 <0>         0.1125
     25 H6         -5.7123   -3.3908   -0.3485 H         1 <0>         0.1267
     26 H7         -2.8680   -1.6675   -3.9898 H         1 <0>         0.1343
@<TRIPOS>BOND
     1    1    6 ar
     2    1    2 ar
     3    1   20 1
     4    2    3 ar
     5    2   21 1
     6    3    4 ar
     7    3   19 1
     8    4    5 ar
     9    4   22 1
    10    5    6 ar
    11    5   23 1
    12    6    7 1
    13    7    8 2
    14    7    9 2
    15    7   10 1
    16   10   11 1
    17   11   16 ar
    18   11   12 ar
    19   12   13 ar
    20   12   24 1
    21   13   14 ar
    22   13   25 1
    23   14   15 ar
    24   14   18 1
    25   15   16 ar
    26   15   17 1
    27   16   26 1
@<TRIPOS>MOLECULE
ZINC08686958
   34    36     0     0     0
SMALL
USER_CHARGES

@<TRIPOS>ATOM
      1 C1         -0.0167    1.3790    0.0096 C.ar      1 <0>        -0.0852
      2 C2          1.1667    2.0885    0.0021 C.ar      1 <0>        -0.0978
      3 C3          2.3855    1.4077   -0.0131 C.ar      1 <0>         0.1071
      4 C4          2.3984    0.0115   -0.0207 C.ar      1 <0>        -0.1650
      5 C5          1.2073   -0.6863   -0.0131 C.ar      1 <0>        -0.0134
      6 C6          0.0021   -0.0041    0.0020 C.ar      1 <0>        -0.1167
      7 Cl1         1.2202   -2.4223   -0.0224 Cl        1 <0>        -0.0605
      8 N1          3.5633    2.1063   -0.0211 N.2       1 <0>        -0.4585
      9 C7          4.5455    1.7458    0.7713 C.2       1 <0>         0.3804
     10 N2          4.5763    0.6973    1.6665 N.am      1 <0>        -0.6936
     11 C8          5.6336    0.4343    2.4152 C.2       1 <0>         0.5287
     12 O1          5.6534   -0.4896    3.2003 O.2       1 <0>        -0.4738
     13 C9          6.8234    1.3625    2.2298 C.3       1 <0>        -0.0961
     14 H1          7.6949    0.8195    1.8641 H         1 <0>         0.1606
     15 S1          6.1595    2.4934    0.9381 S.3       1 <0>         0.0095
     16 C10         7.1461    2.1153    3.5221 C.3       1 <0>        -0.0589
     17 C11         8.4008    2.9276    3.3303 C.ar      1 <0>        -0.0774
     18 C12         9.6248    2.4089    3.7098 C.ar      1 <0>        -0.0922
     19 C13        10.7762    3.1532    3.5343 C.ar      1 <0>        -0.0994
     20 C14        10.7051    4.4175    2.9795 C.ar      1 <0>        -0.0944
     21 C15         9.4814    4.9380    2.5993 C.ar      1 <0>        -0.0299
     22 C16         8.3286    4.1898    2.7695 C.ar      1 <0>        -0.0326
     23 Cl2         6.7927    4.8385    2.2857 Cl        1 <0>        -0.0124
     24 Cl3         9.3915    6.5256    1.9027 Cl        1 <0>        -0.0418
     25 H2         -0.9599    1.9048    0.0260 H         1 <0>         0.1425
     26 H3          1.1501    3.1683    0.0077 H         1 <0>         0.1402
     27 H4          3.3378   -0.5212   -0.0328 H         1 <0>         0.1316
     28 H5         -0.9272   -0.5544    0.0083 H         1 <0>         0.1394
     29 H6          3.7927    0.1317    1.7502 H         1 <0>         0.4136
     30 H7          6.3184    2.7789    3.7724 H         1 <0>         0.1003
     31 H8          7.2961    1.4005    4.3312 H         1 <0>         0.1145
     32 H9          9.6814    1.4216    4.1439 H         1 <0>         0.1432
     33 H10        11.7319    2.7471    3.8310 H         1 <0>         0.1429
     34 H11        11.6050    4.9989    2.8433 H         1 <0>         0.1450
@<TRIPOS>BOND
     1    1    6 ar
     2    1    2 ar
     3    1   25 1
     4    2    3 ar
     5    2   26 1
     6    3    4 ar
     7    3    8 1
     8    4    5 ar
     9    4   27 1
    10    5    6 ar
    11    5    7 1
    12    6   28 1
    13    8    9 2
    14    9   15 1
    15    9   10 1
    16   10   11 am
    17   10   29 1
    18   11   12 2
    19   11   13 1
    20   13   14 1
    21   13   15 1
    22   13   16 1
    23   16   17 1
    24   16   30 1
    25   16   31 1
    26   17   22 ar
    27   17   18 ar
    28   18   19 ar
    29   18   32 1
    30   19   20 ar
    31   19   33 1
    32   20   21 ar
    33   20   34 1
    34   21   22 ar
    35   21   24 1
    36   22   23 1
@<TRIPOS>MOLECULE
ZINC07278071
   35    37     0     0     0
SMALL
USER_CHARGES
6-bromo-3-(3,5-dimethylbenzoyl)-2-sulfanyl-quinazolin-4-one
@<TRIPOS>ATOM
      1 C1         -0.9914    4.2884   -2.3399 C.3       1 <0>        -0.1113
      2 C2         -0.4958    3.5419   -1.1282 C.ar      1 <0>        -0.0849
      3 C3         -0.0599    4.2418   -0.0169 C.ar      1 <0>        -0.1114
      4 C4          0.3964    3.5645    1.1001 C.ar      1 <0>        -0.0877
      5 C5          0.4191    2.1854    1.1129 C.ar      1 <0>        -0.0912
      6 C6         -0.0193    1.4727   -0.0052 C.ar      1 <0>        -0.0829
      7 C7         -0.4726    2.1628   -1.1315 C.ar      1 <0>        -0.0570
      8 C8          0.0020   -0.0041    0.0012 C.2       1 <0>         0.5286
      9 O1          1.0584   -0.5967   -0.0921 O.2       1 <0>        -0.3804
     10 N1         -1.1504   -0.6943    0.1106 N.am      1 <0>        -0.5205
     11 C9         -2.3306   -0.0325    0.1307 C.2       1 <0>         0.5555
     12 O2         -2.3744    1.1809    0.0520 O.3       1 <0>        -0.4895
     13 C10        -3.5571   -0.8326    0.2462 C.ar      1 <0>        -0.2480
     14 C11        -4.8204   -0.2426    0.2697 C.ar      1 <0>         0.0156
     15 C12        -5.9381   -1.0410    0.3845 C.ar      1 <0>        -0.1572
     16 C13        -5.8135   -2.4220    0.4769 C.ar      1 <0>        -0.0361
     17 C14        -4.5851   -3.0199    0.4554 C.ar      1 <0>        -0.1344
     18 C15        -3.4331   -2.2375    0.3399 C.ar      1 <0>         0.2246
     19 N2         -2.1985   -2.7943    0.3151 N.2       1 <0>        -0.5554
     20 C16        -1.1187   -2.0621    0.2065 C.2       1 <0>         0.5101
     21 S1          0.4467   -2.8705    0.1830 S.2       1 <0>        -0.6685
     22 Br1        -7.6556   -0.2504    0.4172 Br        1 <0>        -0.0666
     23 C17         0.8691    4.3354    2.3057 C.3       1 <0>        -0.1113
     24 H1         -0.9358    5.3708   -2.1518 H         1 <0>         0.0630
     25 H2         -2.0344    4.0048   -2.5440 H         1 <0>         0.0689
     26 H3         -0.3657    4.0345   -3.2083 H         1 <0>         0.0664
     27 H4         -0.0755    5.3217   -0.0216 H         1 <0>         0.1188
     28 H5          0.7748    1.6580    1.9857 H         1 <0>         0.1201
     29 H6         -0.8089    1.6178   -2.0011 H         1 <0>         0.1138
     30 H7         -4.9220    0.8303    0.1982 H         1 <0>         0.1372
     31 H8         -6.7005   -3.0316    0.5666 H         1 <0>         0.1322
     32 H9         -4.5048   -4.0945    0.5274 H         1 <0>         0.1406
     33 H10         1.1915    3.6319    3.0875 H         1 <0>         0.0640
     34 H11         0.0467    4.9575    2.6887 H         1 <0>         0.0674
     35 H12         1.7141    4.9795    2.0209 H         1 <0>         0.0674
@<TRIPOS>BOND
     1    1    2 1
     2    1   24 1
     3    1   25 1
     4    1   26 1
     5    2    7 ar
     6    2    3 ar
     7    3    4 ar
     8    3   27 1
     9    4    5 ar
    10    4   23 1
    11    5    6 ar
    12    5   28 1
    13    6    7 ar
    14    6    8 1
    15    7   29 1
    16    8    9 2
    17    8   10 am
    18   10   20 1
    19   10   11 1
    20   11   12 1
    21   11   13 2
    22   13   18 ar
    23   13   14 ar
    24   14   15 ar
    25   14   30 1
    26   15   16 ar
    27   15   22 1
    28   16   17 ar
    29   16   31 1
    30   17   18 ar
    31   17   32 1
    32   18   19 2
    33   19   20 1
    34   20   21 2
    35   23   33 1
    36   23   34 1
    37   23   35 1
@<TRIPOS>MOLECULE
ZINC12467756
   31    33     0     0     0
SMALL
USER_CHARGES
4-[(2-chloro-6-fluoro-phenyl)methyleneamino]-3-(2,4-dichlorophenyl)-1H-1,2,4-triazole-5-thione
@<TRIPOS>ATOM
      1 C1          0.2460    0.4782    2.1348 C.ar      1 <0>        -0.0633
      2 C2          0.1816    0.9556    0.8380 C.ar      1 <0>        -0.1543
      3 C3          1.2963    1.5229    0.2510 C.ar      1 <0>         0.1353
      4 C4          2.4920    1.6133    0.9723 C.ar      1 <0>        -0.1324
      5 C5          2.5475    1.1286    2.2823 C.ar      1 <0>         0.0539
      6 C6          1.4245    0.5646    2.8542 C.ar      1 <0>        -0.1255
      7 Cl1         4.0250    1.2350    3.1876 Cl        1 <0>        -0.0411
      8 C7          3.6861    2.2172    0.3545 C.2       1 <0>         0.1816
      9 N1          3.6350    3.4291   -0.1083 N.2       1 <0>        -0.2289
     10 N2          2.4237    4.1330   -0.0962 N.pl3     1 <0>        -0.3736
     11 C8          1.6222    4.3841   -1.1935 C.2       1 <0>         0.2163
     12 N3          0.5792    5.0604   -0.7983 N.2       1 <0>        -0.2760
     13 N4          0.6957    5.2700    0.5825 N.2       1 <0>        -0.3730
     14 C9          1.8428    4.6867    0.9867 C.2       1 <0>         0.3902
     15 S1          2.4514    4.6559    2.5866 S.3       1 <0>        -0.7508
     16 C10         1.8987    3.9552   -2.5820 C.ar      1 <0>         0.0314
     17 C11         3.1098    3.3375   -2.8963 C.ar      1 <0>        -0.0902
     18 C12         3.3597    2.9340   -4.1913 C.ar      1 <0>        -0.1041
     19 C13         2.4167    3.1517   -5.1821 C.ar      1 <0>        -0.0290
     20 C14         1.2155    3.7689   -4.8785 C.ar      1 <0>        -0.1042
     21 C15         0.9512    4.1719   -3.5843 C.ar      1 <0>        -0.0064
     22 Cl2        -0.5558    4.9454   -3.2045 Cl        1 <0>        -0.0205
     23 Cl3         2.7423    2.6478   -6.8111 Cl        1 <0>        -0.0680
     24 F1          1.2321    1.9888   -1.0155 F         1 <0>        -0.1196
     25 H1         -0.6288    0.0358    2.5883 H         1 <0>         0.1409
     26 H2         -0.7410    0.8807    0.2815 H         1 <0>         0.1391
     27 H3          1.4661    0.1901    3.8663 H         1 <0>         0.1406
     28 H4          4.6206    1.6411    0.2855 H         1 <0>         0.1954
     29 H5          3.8481    3.1713   -2.1258 H         1 <0>         0.1518
     30 H6          4.2947    2.4513   -4.4342 H         1 <0>         0.1400
     31 H7          0.4839    3.9361   -5.6552 H         1 <0>         0.1446
@<TRIPOS>BOND
     1    1    6 ar
     2    1    2 ar
     3    1   25 1
     4    2    3 ar
     5    2   26 1
     6    3    4 ar
     7    3   24 1
     8    4    5 ar
     9    4    8 1
    10    5    6 ar
    11    5    7 1
    12    6   27 1
    13    8    9 2
    14    8   28 1
    15    9   10 1
    16   10   14 1
    17   10   11 1
    18   11   12 2
    19   11   16 1
    20   12   13 1
    21   13   14 2
    22   14   15 1
    23   16   21 ar
    24   16   17 ar
    25   17   18 ar
    26   17   29 1
    27   18   19 ar
    28   18   30 1
    29   19   20 ar
    30   19   23 1
    31   20   21 ar
    32   20   31 1
    33   21   22 1
@<TRIPOS>MOLECULE
ZINC01403087
   29    31     0     0     0
SMALL
USER_CHARGES

@<TRIPOS>ATOM
      1 C1         -0.0167    1.3791    0.0096 C.ar      1 <0>        -0.0558
      2 C2          1.1708    2.0864    0.0021 C.ar      1 <0>        -0.1240
      3 C3          2.3780    1.4112   -0.0130 C.ar      1 <0>         0.0625
      4 C4          2.3968    0.0275   -0.0206 C.ar      1 <0>        -0.6112
      5 C5          1.2097   -0.6796   -0.0130 C.ar      1 <0>        -0.0053
      6 C6          0.0021   -0.0041    0.0020 C.ar      1 <0>        -0.0585
      7 Cl1        -1.4894   -0.8924    0.0120 Cl        1 <0>        -0.0611
      8 S1          3.9344   -0.8326   -0.0404 S.o2      1 <0>         2.6181
      9 O1          4.7364   -0.2545    0.9803 O.2       1 <0>        -0.9839
     10 O2          3.6240   -2.2189   -0.0718 O.2       1 <0>        -0.9995
     11 N1          4.6739   -0.4805   -1.4797 N.2       1 <0>        -0.9931
     12 C7          5.9134   -1.0252   -1.7731 C.2       1 <0>         0.5003
     13 N2          6.6615   -0.8656   -2.8493 N.2       1 <0>        -0.5572
     14 C8          7.8412   -1.4735   -2.9641 C.2       1 <0>         0.1768
     15 C9          8.2811   -2.2756   -1.9475 C.2       1 <0>        -0.2489
     16 S2          6.9256   -2.1234   -0.7916 S.3       1 <0>        -0.2069
     17 C10         8.6655   -1.2836   -4.1769 C.2       1 <0>        -0.0457
     18 C11         8.4050   -0.5254   -5.2872 C.2       1 <0>        -0.0711
     19 C12         9.3349   -0.5017   -6.3059 C.2       1 <0>        -0.1436
     20 C13        10.4744   -1.2270   -6.1775 C.2       1 <0>        -0.1856
     21 S3         10.2627   -1.9768   -4.5714 S.3       1 <0>         0.0775
     22 Cl2         6.9335    0.3874   -5.4105 Cl        1 <0>        -0.0280
     23 Cl3         3.8695    2.2995   -0.0231 Cl        1 <0>        -0.0183
     24 H1         -0.9591    1.9063    0.0259 H         1 <0>         0.1473
     25 H2          1.1562    3.1663    0.0076 H         1 <0>         0.1499
     26 H3          1.2243   -1.7594   -0.0193 H         1 <0>         0.1595
     27 H4          9.1970   -2.8417   -1.8639 H         1 <0>         0.1762
     28 H5          9.1581    0.0864   -7.1943 H         1 <0>         0.1398
     29 H6         11.2992   -1.3233   -6.8681 H         1 <0>         0.1898
@<TRIPOS>BOND
     1    1    6 ar
     2    1    2 ar
     3    1   24 1
     4    2    3 ar
     5    2   25 1
     6    3    4 ar
     7    3   23 1
     8    4    5 ar
     9    4    8 1
    10    5    6 ar
    11    5   26 1
    12    6    7 1
    13    8    9 2
    14    8   10 2
    15    8   11 1
    16   11   12 1
    17   12   16 1
    18   12   13 2
    19   13   14 1
    20   14   15 2
    21   14   17 1
    22   15   16 1
    23   15   27 1
    24   17   21 1
    25   17   18 2
    26   18   19 1
    27   18   22 1
    28   19   20 2
    29   19   28 1
    30   20   21 1
    31   20   29 1
@<TRIPOS>MOLECULE
ZINC44243990
   25    26     0     0     0
SMALL
USER_CHARGES

@<TRIPOS>ATOM
      1 C1          0.5376    1.4830   -0.6108 C.ar      1 <0>        -0.0730
      2 C2          1.2286    2.0627    0.4387 C.ar      1 <0>        -0.0851
      3 C3          1.9228    1.2699    1.3355 C.ar      1 <0>        -0.0777
      4 C4          1.9276   -0.1042    1.1857 C.ar      1 <0>        -0.0574
      5 C5          1.2344   -0.6893    0.1332 C.ar      1 <0>         0.2844
      6 C6          0.5386    0.1095   -0.7660 C.ar      1 <0>        -0.1208
      7 Cl1        -0.3290   -0.6168   -2.0826 Cl        1 <0>        -0.0287
      8 N1          1.2377   -2.0796   -0.0215 N.2       1 <0>        -1.1079
      9 S1         -0.1762   -2.9311    0.1130 S.o2      1 <0>         2.6161
     10 O1         -0.7431   -2.5813    1.3682 O.2       1 <0>        -1.0225
     11 O2         -0.8734   -2.7568   -1.1129 O.2       1 <0>        -0.9983
     12 C7          0.2507   -4.6378    0.2113 C.ar      1 <0>        -0.6647
     13 C8          0.3638   -5.4005   -0.9410 C.ar      1 <0>         0.0518
     14 C9          0.7019   -6.7399   -0.8154 C.ar      1 <0>        -0.1730
     15 C10         0.9134   -7.2658    0.4464 C.ar      1 <0>         0.1638
     16 N2          0.7968   -6.5095    1.5201 N.ar      1 <0>        -0.4910
     17 C11         0.4825   -5.2313    1.4375 C.ar      1 <0>         0.2062
     18 Br1         0.8710   -7.8330   -2.3492 Br        1 <0>        -0.0370
     19 Cl2         2.7993   -1.0979    2.3110 Cl        1 <0>        -0.0635
     20 Cl3         1.2249    3.7881    0.6303 Cl        1 <0>        -0.0864
     21 H1         -0.0066    2.1042   -1.3068 H         1 <0>         0.1310
     22 H2          2.4617    1.7253    2.1532 H         1 <0>         0.1325
     23 H3          0.1924   -4.9624   -1.9131 H         1 <0>         0.1581
     24 H4          1.1767   -8.3077    0.5533 H         1 <0>         0.1663
     25 H5          0.4007   -4.6427    2.3393 H         1 <0>         0.1768
@<TRIPOS>BOND
     1    1    6 ar
     2    1    2 ar
     3    1   21 1
     4    2    3 ar
     5    2   20 1
     6    3    4 ar
     7    3   22 1
     8    4    5 ar
     9    4   19 1
    10    5    6 ar
    11    5    8 1
    12    6    7 1
    13    8    9 1
    14    9   10 2
    15    9   11 2
    16    9   12 1
    17   12   17 ar
    18   12   13 ar
    19   13   14 ar
    20   13   23 1
    21   14   15 ar
    22   14   18 1
    23   15   16 ar
    24   15   24 1
    25   16   17 ar
    26   17   25 1
@<TRIPOS>MOLECULE
ZINC06258975
   37    39     0     0     0
SMALL
USER_CHARGES

@<TRIPOS>ATOM
      1 C1          0.0174    1.3076   -1.0257 C.ar      1 <0>        -0.1153
      2 C2          1.1634    2.0412   -0.7695 C.ar      1 <0>        -0.1286
      3 C3          2.3584    1.3984   -0.5285 C.ar      1 <0>        -0.1037
      4 C4          2.4114   -0.0013   -0.5433 C.ar      1 <0>        -0.0683
      5 C5          1.2471   -0.7355   -0.8034 C.ar      1 <0>        -0.0946
      6 C6          0.0606   -0.0762   -1.0423 C.ar      1 <0>        -0.1218
      7 C7          3.6797   -0.6947   -0.2882 C.2       1 <0>        -0.0605
      8 C8          3.7267   -2.0544   -0.3035 C.2       1 <0>        -0.1715
      9 C9          4.9358   -2.7155   -0.0604 C.2       1 <0>         0.0727
     10 C10         4.9627   -4.1050    0.0371 C.2       1 <0>        -0.2659
     11 C11         3.7260   -4.8981    0.0426 C.2       1 <0>         0.5005
     12 O1          2.5199   -4.2973   -0.0480 O.3       1 <0>        -0.5880
     13 N1          3.8206   -6.2134    0.1377 N.2       1 <0>        -0.5904
     14 C12         4.9944   -6.8324    0.2277 C.2       1 <0>         0.5451
     15 S1          5.0019   -8.5402    0.3466 S.2       1 <0>        -0.6441
     16 N2          6.1724   -6.1915    0.2301 N.am      1 <0>        -0.5101
     17 C13         6.2339   -4.8460    0.1333 C.2       1 <0>         0.5607
     18 O2          7.3028   -4.2639    0.1300 O.2       1 <0>        -0.5011
     19 C14         7.3589   -6.9303    0.3285 C.ar      1 <0>         0.1798
     20 C15         7.9987   -7.3754   -0.8207 C.ar      1 <0>        -0.0762
     21 C16         9.1683   -8.1032   -0.7213 C.ar      1 <0>        -0.0950
     22 C17         9.7036   -8.3895    0.5211 C.ar      1 <0>        -0.0965
     23 C18         9.0697   -7.9480    1.6691 C.ar      1 <0>        -0.0246
     24 C19         7.9006   -7.2141    1.5758 C.ar      1 <0>        -0.0047
     25 Cl1         7.1086   -6.6539    3.0154 Cl        1 <0>        -0.0395
     26 Cl2         9.7448   -8.3101    3.2269 Cl        1 <0>        -0.0529
     27 H1         -0.9167    1.8177   -1.2093 H         1 <0>         0.1204
     28 H2          1.1207    3.1203   -0.7589 H         1 <0>         0.1215
     29 H3          3.2514    1.9721   -0.3292 H         1 <0>         0.1238
     30 H4          1.2792   -1.8149   -0.8170 H         1 <0>         0.1405
     31 H5         -0.8381   -0.6406   -1.2427 H         1 <0>         0.1251
     32 H6          4.5756   -0.1256   -0.0884 H         1 <0>         0.1213
     33 H7          2.8308   -2.6235   -0.5034 H         1 <0>         0.1870
     34 H8          5.8482   -2.1485    0.0518 H         1 <0>         0.1322
     35 H9          7.5816   -7.1529   -1.7918 H         1 <0>         0.1362
     36 H10         9.6655   -8.4495   -1.6154 H         1 <0>         0.1431
     37 H11        10.6182   -8.9590    0.5956 H         1 <0>         0.1433
@<TRIPOS>BOND
     1    1    6 ar
     2    1    2 ar
     3    1   27 1
     4    2    3 ar
     5    2   28 1
     6    3    4 ar
     7    3   29 1
     8    4    5 ar
     9    4    7 1
    10    5    6 ar
    11    5   30 1
    12    6   31 1
    13    7    8 2
    14    7   32 1
    15    8    9 1
    16    8   33 1
    17    9   10 2
    18    9   34 1
    19   10   17 1
    20   10   11 1
    21   11   12 1
    22   11   13 2
    23   13   14 1
    24   14   15 2
    25   14   16 1
    26   16   17 am
    27   16   19 1
    28   17   18 2
    29   19   24 ar
    30   19   20 ar
    31   20   21 ar
    32   20   35 1
    33   21   22 ar
    34   21   36 1
    35   22   23 ar
    36   22   37 1
    37   23   24 ar
    38   23   26 1
    39   24   25 1
@<TRIPOS>MOLECULE
ZINC04720789
   59    62     0     0     0
SMALL
USER_CHARGES
dicyano-isopropyl-dimethyl-BLAHcarboxylic acid
@<TRIPOS>ATOM
      1 C1         -2.9734    3.7559   -0.2344 C.3       1 <0>        -0.1474
      2 C2         -2.1154    4.2661    0.9251 C.3       1 <0>        -0.0466
      3 C3         -2.8725    4.0774    2.2413 C.3       1 <0>        -0.1449
      4 C4         -0.8205    3.4893    0.9732 C.2       1 <0>        -0.1282
      5 C5          0.3691    4.0719    0.8517 C.2       1 <0>        -0.1414
      6 C6          1.5412    3.0732    1.0249 C.3       1 <0>         0.0067
      7 C7          2.8212    3.8635    0.8653 C.3       1 <0>        -0.1038
      8 C8          3.8044    3.7230    2.0271 C.3       1 <0>        -0.0995
      9 C9          3.7370    2.3085    2.5873 C.3       1 <0>        -0.0515
     10 H1          3.7366    1.6227    1.7142 H         1 <0>         0.0778
     11 C10         2.4066    2.1188    3.2995 C.3       1 <0>        -0.0328
     12 C11         1.2606    2.5614    2.4224 C.3       1 <0>        -0.0685
     13 H2          0.8640    3.4811    2.9668 H         1 <0>         0.0690
     14 C12         0.0512    1.6330    2.4099 C.3       1 <0>        -0.1109
     15 C13        -0.7868    1.9752    1.1685 C.3       1 <0>        -0.0355
     16 H3         -1.7876    1.5672    1.2409 H         1 <0>         0.0957
     17 C14        -0.0515    1.4480   -0.0731 C.3       1 <0>         0.0159
     18 H4         -0.5867    1.7826   -0.9693 H         1 <0>         0.1274
     19 C15         1.3587    2.0490   -0.0847 C.3       1 <0>         0.0326
     20 H5          1.4678    2.5831   -1.0535 H         1 <0>         0.1218
     21 C16         2.3310    0.9568   -0.0759 C.1       1 <0>         0.1843
     22 N1          3.0863    0.1083   -0.0691 N.1       1 <0>        -0.3813
     23 C17         0.0040   -0.0162   -0.0645 C.1       1 <0>         0.2031
     24 N2          0.0471   -1.1514   -0.0578 N.1       1 <0>        -0.4133
     25 C18         2.2751    0.6616    3.7430 C.3       1 <0>        -0.1016
     26 C19         3.4318    0.3187    4.6825 C.3       1 <0>        -0.1124
     27 C20         4.7776    0.5058    4.0028 C.3       1 <0>        -0.0890
     28 C21         4.9589    1.8871    3.3739 C.3       1 <0>        -0.0884
     29 C22         5.3926    2.9060    4.4226 C.3       1 <0>        -0.1236
     30 C23         6.1222    1.7508    2.3906 C.2       1 <0>         0.4670
     31 O1          5.9493    1.9731    1.2156 O.co2     1 <0>        -0.6324
     32 C24         2.3250    2.9961    4.5687 C.3       1 <0>        -0.1486
     33 H6         -3.1898    2.6977   -0.0881 H         1 <0>         0.0563
     34 H7         -3.9077    4.3163   -0.2691 H         1 <0>         0.0543
     35 H8         -2.4341    3.8903   -1.1720 H         1 <0>         0.0574
     36 H9         -1.8991    5.3243    0.7789 H         1 <0>         0.0768
     37 H10        -2.2612    4.4409    3.0673 H         1 <0>         0.0566
     38 H11        -3.8067    4.6378    2.2066 H         1 <0>         0.0537
     39 H12        -3.0888    3.0192    2.3875 H         1 <0>         0.0560
     40 H13         0.5411    5.1143    0.6543 H         1 <0>         0.1349
     41 H14         3.3216    3.5759   -0.0675 H         1 <0>         0.0653
     42 H15         2.5601    4.9284    0.7654 H         1 <0>         0.0630
     43 H16         3.5694    4.4632    2.7943 H         1 <0>         0.0501
     44 H17         4.8085    3.9354    1.6529 H         1 <0>         0.0745
     45 H18         0.3632    0.5968    2.4024 H         1 <0>         0.0725
     46 H19        -0.5561    1.8109    3.3020 H         1 <0>         0.0718
     47 H20         1.3286    0.5299    4.2728 H         1 <0>         0.0541
     48 H21         2.2906    0.0017    2.8778 H         1 <0>         0.0541
     49 H22         3.3293   -0.7385    4.9731 H         1 <0>         0.0443
     50 H23         3.3799    0.9036    5.5977 H         1 <0>         0.0607
     51 H24         4.8932   -0.2576    3.2201 H         1 <0>         0.0467
     52 H25         5.5800    0.3453    4.7352 H         1 <0>         0.0602
     53 H26         4.6356    2.9672    5.2045 H         1 <0>         0.0447
     54 H27         6.3419    2.5961    4.8595 H         1 <0>         0.0564
     55 H28         5.5101    3.8828    3.9534 H         1 <0>         0.0429
     56 H29         1.3176    2.9448    4.9817 H         1 <0>         0.0441
     57 H30         3.0395    2.6333    5.3077 H         1 <0>         0.0662
     58 H31         2.5604    4.0290    4.3122 H         1 <0>         0.0552
     59 O2          7.3354    1.3843    2.8328 O.co2     1 <0>        -0.7726
@<TRIPOS>BOND
     1    1    2 1
     2    1   33 1
     3    1   34 1
     4    1   35 1
     5    2    3 1
     6    2    4 1
     7    2   36 1
     8    3   37 1
     9    3   38 1
    10    3   39 1
    11    4   15 1
    12    4    5 2
    13    5    6 1
    14    5   40 1
    15    6   12 1
    16    6   19 1
    17    6    7 1
    18    7    8 1
    19    7   41 1
    20    7   42 1
    21    8    9 1
    22    8   43 1
    23    8   44 1
    24    9   10 1
    25    9   28 1
    26    9   11 1
    27   11   12 1
    28   11   25 1
    29   11   32 1
    30   12   13 1
    31   12   14 1
    32   14   15 1
    33   14   45 1
    34   14   46 1
    35   15   16 1
    36   15   17 1
    37   17   18 1
    38   17   19 1
    39   17   23 1
    40   19   20 1
    41   19   21 1
    42   21   22 3
    43   23   24 3
    44   25   26 1
    45   25   47 1
    46   25   48 1
    47   26   27 1
    48   26   49 1
    49   26   50 1
    50   27   28 1
    51   27   51 1
    52   27   52 1
    53   28   29 1
    54   28   30 1
    55   29   53 1
    56   29   54 1
    57   29   55 1
    58   30   31 2
    59   30   59 1
    60   32   56 1
    61   32   57 1
    62   32   58 1
@<TRIPOS>MOLECULE
ZINC05461018
   25    26     0     0     0
SMALL
USER_CHARGES
6,8-dibromo-2-(1-chloro-1-methyl-ethyl)-3H-quinazoline-4-thione
@<TRIPOS>ATOM
      1 C1         -4.5595    5.4268   -1.1762 C.3       1 <0>        -0.1419
      2 C2         -3.7622    5.8251    0.0674 C.3       1 <0>         0.0974
      3 C3         -4.5357    5.4151    1.3222 C.3       1 <0>        -0.1419
      4 C4         -2.4256    5.1291    0.0514 C.ar      1 <0>         0.3507
      5 N1         -1.3013    5.8923    0.0447 N.ar      1 <0>        -0.5488
      6 C5         -0.0770    5.3157    0.0299 C.ar      1 <0>         0.3605
      7 S1          1.3506    6.2606    0.0213 S.3       1 <0>        -0.7050
      8 C6         -0.0203    3.8476    0.0225 C.ar      1 <0>        -0.1698
      9 C7          1.1901    3.1572    0.0072 C.ar      1 <0>         0.0166
     10 C8          1.1859    1.7784    0.0003 C.ar      1 <0>        -0.1362
     11 C9         -0.0126    1.0758    0.0080 C.ar      1 <0>        -0.0283
     12 C10        -1.2198    1.7401    0.0173 C.ar      1 <0>        -0.0976
     13 C11        -1.2408    3.1366    0.0307 C.ar      1 <0>         0.2075
     14 N2         -2.4071    3.8310    0.0451 N.ar      1 <0>        -0.5620
     15 Br1        -2.8403    0.7655    0.0198 Br        1 <0>        -0.0369
     16 Br2         2.8251    0.8358   -0.0204 Br        1 <0>        -0.0527
     17 Cl1        -3.5101    7.6104    0.0734 Cl        1 <0>        -0.1492
     18 H1         -4.0033    5.7216   -2.0783 H         1 <0>         0.0642
     19 H2         -5.5351    5.9348   -1.1645 H         1 <0>         0.0710
     20 H3         -4.7133    4.3376   -1.1798 H         1 <0>         0.0848
     21 H4         -3.9624    5.7015    2.2162 H         1 <0>         0.0642
     22 H5         -4.6895    4.3259    1.3186 H         1 <0>         0.0848
     23 H6         -5.5113    5.9231    1.3339 H         1 <0>         0.0710
     24 H7          2.1247    3.6983    0.0005 H         1 <0>         0.1581
     25 H8          0.0021   -0.0041    0.0020 H         1 <0>         0.1396
@<TRIPOS>BOND
     1    1    2 1
     2    1   18 1
     3    1   19 1
     4    1   20 1
     5    2    3 1
     6    2    4 1
     7    2   17 1
     8    3   21 1
     9    3   22 1
    10    3   23 1
    11    4   14 ar
    12    4    5 ar
    13    5    6 ar
    14    6    7 1
    15    6    8 ar
    16    8   13 ar
    17    8    9 ar
    18    9   10 ar
    19    9   24 1
    20   10   11 ar
    21   10   16 1
    22   11   12 ar
    23   11   25 1
    24   12   13 ar
    25   12   15 1
    26   13   14 ar
@<TRIPOS>MOLECULE
ZINC37385931
   26    27     0     0     0
SMALL
USER_CHARGES

@<TRIPOS>ATOM
      1 C1         -0.0167    1.3778    0.0096 C.ar      1 <0>        -0.1388
      2 C2          1.1711    2.0855    0.0021 C.ar      1 <0>        -0.0070
      3 C3          2.3776    1.4114   -0.0135 C.ar      1 <0>        -0.6110
      4 C4          2.3973    0.0292   -0.0216 C.ar      1 <0>         0.0076
      5 C5          1.2095   -0.6792   -0.0136 C.ar      1 <0>        -0.1153
      6 C6          0.0021   -0.0041    0.0020 C.ar      1 <0>        -0.0526
      7 Br1         1.2358   -2.5700   -0.0253 Br        1 <0>        -0.0525
      8 S1          3.8908    2.3140   -0.0237 S.o2      1 <0>         2.6030
      9 O1          4.8720    1.4555   -0.5890 O.2       1 <0>        -1.0173
     10 O2          3.5963    3.5945   -0.5648 O.2       1 <0>        -1.0178
     11 N1          4.3271    2.5563    1.5553 N.2       1 <0>        -1.0596
     12 C7          5.5010    3.2531    1.8572 C.ar      1 <0>         0.3052
     13 C8          6.2991    3.7473    0.8341 C.ar      1 <0>        -0.2397
     14 C9          7.4593    4.4358    1.1354 C.ar      1 <0>         0.0413
     15 C10         7.8260    4.6323    2.4564 C.ar      1 <0>        -0.1232
     16 C11         7.0329    4.1405    3.4776 C.ar      1 <0>        -0.0461
     17 C12         5.8683    3.4571    3.1820 C.ar      1 <0>        -0.0812
     18 Cl1         4.8696    2.8471    4.4642 Cl        1 <0>        -0.0674
     19 Cl2         9.2840    5.4969    2.8314 Cl        1 <0>        -0.0803
     20 Cl3         8.4577    5.0541   -0.1431 Cl        1 <0>        -0.0737
     21 H1         -0.9592    1.9049    0.0260 H         1 <0>         0.1377
     22 H2          1.1560    3.1654    0.0080 H         1 <0>         0.1446
     23 H3          3.3402   -0.4974   -0.0346 H         1 <0>         0.1469
     24 H4         -0.9257   -0.5568    0.0083 H         1 <0>         0.1352
     25 H5          6.0139    3.5937   -0.1962 H         1 <0>         0.1251
     26 H6          7.3215    4.2945    4.5069 H         1 <0>         0.1370
@<TRIPOS>BOND
     1    1    6 ar
     2    1    2 ar
     3    1   21 1
     4    2    3 ar
     5    2   22 1
     6    3    4 ar
     7    3    8 1
     8    4    5 ar
     9    4   23 1
    10    5    6 ar
    11    5    7 1
    12    6   24 1
    13    8    9 2
    14    8   10 2
    15    8   11 1
    16   11   12 1
    17   12   17 ar
    18   12   13 ar
    19   13   14 ar
    20   13   25 1
    21   14   15 ar
    22   14   20 1
    23   15   16 ar
    24   15   19 1
    25   16   17 ar
    26   16   26 1
    27   17   18 1
@<TRIPOS>MOLECULE
ZINC40944769
   43    46     0     0     0
SMALL
USER_CHARGES

@<TRIPOS>ATOM
      1 C1         -0.0187    1.5258    0.0104 C.3       1 <0>        -0.1445
      2 C2          0.0021   -0.0041    0.0020 C.3       1 <0>        -0.0867
      3 H1          0.5120   -0.3573   -0.8943 H         1 <0>         0.0735
      4 C3         -1.4336   -0.5366    0.0189 C.3       1 <0>        -0.1098
      5 C4         -1.4324   -2.0454   -0.2367 C.3       1 <0>        -0.0582
      6 C5         -0.4635   -2.7037    0.7345 C.2       1 <0>        -0.0193
      7 C6          0.4847   -1.9863    1.3744 C.2       1 <0>        -0.2359
      8 S1          1.3439   -3.1671    2.3725 S.3       1 <0>         0.0123
      9 C7          0.4937   -4.5575    1.9680 C.2       1 <0>         0.2591
     10 C8         -0.4589   -4.1197    1.0607 C.2       1 <0>        -0.2491
     11 C9         -1.3981   -5.0248    0.4697 C.1       1 <0>         0.3275
     12 N1         -2.1432   -5.7427    0.0009 N.1       1 <0>        -0.5111
     13 N2          0.6975   -5.8449    2.4329 N.2       1 <0>        -1.0173
     14 S2          1.9044   -6.1495    3.5251 S.o2      1 <0>         2.6036
     15 O1          3.1319   -5.9034    2.8530 O.2       1 <0>        -1.0064
     16 O2          1.5450   -5.4786    4.7251 O.2       1 <0>        -1.0044
     17 C10         1.8620   -7.8747    3.8807 C.ar      1 <0>        -0.6160
     18 C11         1.0683   -8.3406    4.9274 C.ar      1 <0>        -0.0321
     19 C12         1.0133   -9.6666    5.2286 C.ar      1 <0>        -0.1315
     20 C13         1.7666  -10.5827    4.4747 C.ar      1 <0>        -0.0182
     21 C14         1.7351  -11.9594    4.7555 C.ar      1 <0>        -0.1179
     22 C15         2.4776  -12.8171    4.0037 C.ar      1 <0>        -0.1045
     23 C16         3.2711  -12.3513    2.9569 C.ar      1 <0>        -0.1316
     24 C17         3.3264  -11.0252    2.6560 C.ar      1 <0>        -0.0867
     25 C18         2.5734  -10.1091    3.4102 C.ar      1 <0>        -0.0781
     26 C19         2.6006   -8.7330    3.1258 C.ar      1 <0>         0.0096
     27 C20         0.7393   -0.5154    1.2485 C.3       1 <0>        -0.0149
     28 H2          1.0039    1.9031    0.0027 H         1 <0>         0.0537
     29 H3         -0.5459    1.8868   -0.8726 H         1 <0>         0.0524
     30 H4         -0.5289    1.8773    0.9072 H         1 <0>         0.0542
     31 H5         -1.8834   -0.3344    0.9909 H         1 <0>         0.0650
     32 H6         -2.0138   -0.0383   -0.7578 H         1 <0>         0.0614
     33 H7         -2.4348   -2.4437   -0.0796 H         1 <0>         0.0698
     34 H8         -1.1145   -2.2426   -1.2605 H         1 <0>         0.0725
     35 H9          0.4884   -7.6387    5.5083 H         1 <0>         0.1387
     36 H10         0.3943  -10.0131    6.0430 H         1 <0>         0.1326
     37 H11         1.1251  -12.3348    5.5638 H         1 <0>         0.1282
     38 H12         2.4519  -13.8746    4.2218 H         1 <0>         0.1229
     39 H13         3.8511  -13.0532    2.3760 H         1 <0>         0.1239
     40 H14         3.9460  -10.6786    1.8422 H         1 <0>         0.1311
     41 H15         3.2074   -8.3582    2.3148 H         1 <0>         0.1446
     42 H16         1.8088   -0.3333    1.1434 H         1 <0>         0.0690
     43 H17         0.3640   -0.0020    2.1338 H         1 <0>         0.0688
@<TRIPOS>BOND
     1    1    2 1
     2    1   28 1
     3    1   29 1
     4    1   30 1
     5    2    3 1
     6    2   27 1
     7    2    4 1
     8    4    5 1
     9    4   31 1
    10    4   32 1
    11    5    6 1
    12    5   33 1
    13    5   34 1
    14    6   10 1
    15    6    7 2
    16    7    8 1
    17    7   27 1
    18    8    9 1
    19    9   10 2
    20    9   13 1
    21   10   11 1
    22   11   12 3
    23   13   14 1
    24   14   15 2
    25   14   16 2
    26   14   17 1
    27   17   26 ar
    28   17   18 ar
    29   18   19 ar
    30   18   35 1
    31   19   20 ar
    32   19   36 1
    33   20   25 ar
    34   20   21 ar
    35   21   22 ar
    36   21   37 1
    37   22   23 ar
    38   22   38 1
    39   23   24 ar
    40   23   39 1
    41   24   25 ar
    42   24   40 1
    43   25   26 ar
    44   26   41 1
    45   27   42 1
    46   27   43 1
@<TRIPOS>MOLECULE
ZINC15685738
   34    36     0     0     0
SMALL
USER_CHARGES

@<TRIPOS>ATOM
      1 C1          1.1012   -0.1597   -0.5615 C.ar      1 <0>        -0.0880
      2 C2          2.3627    0.3855   -0.7096 C.ar      1 <0>        -0.0938
      3 C3          3.3955   -0.3872   -1.2091 C.ar      1 <0>        -0.0821
      4 C4          3.1654   -1.7052   -1.5603 C.ar      1 <0>        -0.0939
      5 C5          1.9036   -2.2496   -1.4118 C.ar      1 <0>        -0.0883
      6 C6          0.8717   -1.4770   -0.9125 C.ar      1 <0>        -0.0787
      7 C7         -0.5038   -2.0709   -0.7509 C.3       1 <0>         0.0977
      8 O1         -1.2533   -1.8704   -1.9509 O.3       1 <0>        -0.3058
      9 C8         -2.5231   -2.3495   -1.9717 C.ar      1 <0>         0.1375
     10 C9         -3.0379   -2.9957   -0.8531 C.ar      1 <0>        -0.2153
     11 C10        -4.3244   -3.4839   -0.8685 C.ar      1 <0>        -0.0500
     12 C11        -5.1163   -3.3284   -2.0143 C.ar      1 <0>        -0.1102
     13 C12        -4.5922   -2.6758   -3.1384 C.ar      1 <0>        -0.0574
     14 C13        -3.3060   -2.1872   -3.1094 C.ar      1 <0>        -0.1464
     15 C14        -6.4879   -3.8469   -2.0371 C.2       1 <0>         0.0307
     16 C15        -7.3130   -3.5446   -3.0779 C.2       1 <0>        -0.1794
     17 C16        -8.6095   -4.0553   -3.3930 C.2       1 <0>         0.4849
     18 O2         -9.1989   -4.9831   -2.6054 O.3       1 <0>        -0.5819
     19 N1         -9.2062   -3.6074   -4.4513 N.2       1 <0>        -0.6229
     20 C17        -8.6380   -2.6853   -5.2469 C.2       1 <0>         0.3721
     21 S1         -7.0778   -2.3920   -4.4253 S.3       1 <0>        -0.1474
     22 S2         -9.2530   -1.9707   -6.6759 S.2       1 <0>        -0.5319
     23 Br1         5.1215    0.3582   -1.4126 Br        1 <0>        -0.0492
     24 H1          0.2958    0.4422   -0.1673 H         1 <0>         0.1357
     25 H2          2.5418    1.4147   -0.4357 H         1 <0>         0.1363
     26 H3          3.9715   -2.3088   -1.9507 H         1 <0>         0.1362
     27 H4          1.7239   -3.2786   -1.6860 H         1 <0>         0.1356
     28 H5         -0.4172   -3.1389   -0.5507 H         1 <0>         0.0759
     29 H6         -1.0137   -1.5855    0.0813 H         1 <0>         0.0759
     30 H7         -2.4267   -3.1150    0.0293 H         1 <0>         0.1302
     31 H8         -4.7229   -3.9863    0.0006 H         1 <0>         0.1329
     32 H9         -5.1977   -2.5534   -4.0243 H         1 <0>         0.1529
     33 H10        -2.9025   -1.6803   -3.9735 H         1 <0>         0.1354
     34 H11        -6.8437   -4.4684   -1.2287 H         1 <0>         0.1529
@<TRIPOS>BOND
     1    1    6 ar
     2    1    2 ar
     3    1   24 1
     4    2    3 ar
     5    2   25 1
     6    3    4 ar
     7    3   23 1
     8    4    5 ar
     9    4   26 1
    10    5    6 ar
    11    5   27 1
    12    6    7 1
    13    7    8 1
    14    7   28 1
    15    7   29 1
    16    8    9 1
    17    9   14 ar
    18    9   10 ar
    19   10   11 ar
    20   10   30 1
    21   11   12 ar
    22   11   31 1
    23   12   13 ar
    24   12   15 1
    25   13   14 ar
    26   13   32 1
    27   14   33 1
    28   15   16 2
    29   15   34 1
    30   16   21 1
    31   16   17 1
    32   17   18 1
    33   17   19 2
    34   19   20 1
    35   20   21 1
    36   20   22 2
@<TRIPOS>MOLECULE
ZINC08549625
   48    51     0     0     0
SMALL
USER_CHARGES
(2,4-dimethylphenyl)-(2-methylprop-2-enyl)-oxo-BLAHcarboxylic acid
@<TRIPOS>ATOM
      1 C1          3.4459    1.4692   -0.4257 C.3       1 <0>        -0.1101
      2 C2          2.1062    0.7823   -0.4919 C.ar      1 <0>        -0.0900
      3 C3          1.9519   -0.4824    0.0461 C.ar      1 <0>        -0.1221
      4 C4          0.7254   -1.1142   -0.0120 C.ar      1 <0>        -0.1006
      5 C5         -0.3539   -0.4783   -0.6120 C.ar      1 <0>         0.1698
      6 C6         -0.1956    0.7912   -1.1516 C.ar      1 <0>        -0.0786
      7 C7          1.0340    1.4178   -1.0902 C.ar      1 <0>        -0.1172
      8 C8         -1.3623    1.4823   -1.8091 C.3       1 <0>        -0.1193
      9 N1         -1.5981   -1.1155   -0.6722 N.am      1 <0>        -0.6006
     10 C9         -2.2004   -1.7170   -1.9033 C.3       1 <0>         0.1961
     11 H1         -1.9792   -1.1104   -2.7815 H         1 <0>         0.0950
     12 C10        -3.6604   -1.6835   -1.5838 C.3       1 <0>         0.0985
     13 C11        -4.2339   -0.2787   -1.6185 C.2       1 <0>        -0.1934
     14 C12        -5.5204   -0.4085   -1.3291 C.2       1 <0>        -0.1386
     15 C13        -5.7169   -1.9047   -1.0550 C.3       1 <0>         0.1095
     16 H2         -6.7387   -2.2764   -1.1317 H         1 <0>         0.1421
     17 O1         -4.7288   -2.5048   -1.9926 O.3       1 <0>        -0.3344
     18 C14        -5.0029   -2.0751    0.3291 C.3       1 <0>        -0.1360
     19 H3         -5.3194   -2.9965    0.8180 H         1 <0>         0.0887
     20 C15        -3.5525   -2.1479   -0.0760 C.3       1 <0>        -0.1527
     21 H4         -3.2237   -3.1869   -0.0514 H         1 <0>         0.1006
     22 C16        -2.4559   -1.2793    0.3886 C.2       1 <0>         0.5540
     23 O2         -2.3340   -0.8004    1.4962 O.2       1 <0>        -0.4375
     24 C17        -5.2587   -0.8812    1.2124 C.2       1 <0>         0.4650
     25 O3         -4.3510   -0.1378    1.5012 O.co2     1 <0>        -0.5921
     26 C18        -1.7200   -3.1562   -2.1001 C.3       1 <0>        -0.0951
     27 C19        -0.2444   -3.1558   -2.4058 C.2       1 <0>        -0.1280
     28 C20         0.6226   -3.3819   -1.4502 C.2       1 <0>        -0.1804
     29 C21         0.2339   -2.8954   -3.8110 C.3       1 <0>        -0.1148
     30 H5          4.0268    1.2189   -1.3135 H         1 <0>         0.0664
     31 H6          3.2991    2.5483   -0.3799 H         1 <0>         0.0635
     32 H7          3.9810    1.1372    0.4640 H         1 <0>         0.0636
     33 H8          2.7915   -0.9764    0.5125 H         1 <0>         0.1198
     34 H9          0.6055   -2.1018    0.4082 H         1 <0>         0.1264
     35 H10         1.1578    2.4051   -1.5100 H         1 <0>         0.1203
     36 H11        -1.9640    1.9813   -1.0495 H         1 <0>         0.0753
     37 H12        -0.9932    2.2193   -2.5223 H         1 <0>         0.0627
     38 H13        -1.9736    0.7460   -2.3309 H         1 <0>         0.0708
     39 H14        -3.7034    0.6369   -1.8343 H         1 <0>         0.1421
     40 H15        -6.2680    0.3701   -1.2935 H         1 <0>         0.1457
     41 H16        -1.9023   -3.7277   -1.1900 H         1 <0>         0.0768
     42 H17        -2.2627   -3.6102   -2.9291 H         1 <0>         0.0870
     43 H18         0.2796   -3.6604   -0.4646 H         1 <0>         0.0945
     44 H19         1.6804   -3.2898   -1.6478 H         1 <0>         0.0961
     45 H20         0.3906   -1.8256   -3.9491 H         1 <0>         0.0632
     46 H21         1.1718   -3.4247   -3.9795 H         1 <0>         0.0597
     47 H22        -0.5146   -3.2476   -4.5207 H         1 <0>         0.0622
     48 O4         -6.4949   -0.6436    1.6784 O.co2     1 <0>        -0.7740
@<TRIPOS>BOND
     1    1    2 1
     2    1   30 1
     3    1   31 1
     4    1   32 1
     5    2    7 ar
     6    2    3 ar
     7    3    4 ar
     8    3   33 1
     9    4    5 ar
    10    4   34 1
    11    5    6 ar
    12    5    9 1
    13    6    7 ar
    14    6    8 1
    15    7   35 1
    16    8   36 1
    17    8   37 1
    18    8   38 1
    19    9   22 am
    20    9   10 1
    21   10   11 1
    22   10   12 1
    23   10   26 1
    24   12   17 1
    25   12   20 1
    26   12   13 1
    27   13   14 2
    28   13   39 1
    29   14   15 1
    30   14   40 1
    31   15   16 1
    32   15   17 1
    33   15   18 1
    34   18   19 1
    35   18   20 1
    36   18   24 1
    37   20   21 1
    38   20   22 1
    39   22   23 2
    40   24   25 2
    41   24   48 1
    42   26   27 1
    43   26   41 1
    44   26   42 1
    45   27   28 2
    46   27   29 1
    47   28   43 1
    48   28   44 1
    49   29   45 1
    50   29   46 1
    51   29   47 1
@<TRIPOS>MOLECULE
ZINC35233036
   22    23     0     0     0
SMALL
USER_CHARGES

@<TRIPOS>ATOM
      1 C1         -0.0167    1.3768    0.0096 C.ar      1 <0>        -0.0512
      2 C2          1.1705    2.0863    0.0021 C.ar      1 <0>        -0.2225
      3 C3          2.3799    1.4164   -0.0131 C.ar      1 <0>        -0.0428
      4 C4          2.4060    0.0349   -0.0208 C.ar      1 <0>        -0.1546
      5 C5          1.2151   -0.6807   -0.0132 C.ar      1 <0>         0.3042
      6 C6          0.0021   -0.0041    0.0020 C.ar      1 <0>        -0.2580
      7 N1          1.2376   -2.0775   -0.0210 N.2       1 <0>        -1.0681
      8 S1         -0.1829   -2.9286   -0.0120 S.o2      1 <0>         2.6348
      9 O1         -0.8025   -2.6715    1.2407 O.2       1 <0>        -1.0115
     10 O2         -0.8263   -2.6581   -1.2498 O.2       1 <0>        -1.0150
     11 C7          0.2351   -4.6402   -0.0252 C.2       1 <0>        -0.7181
     12 C8          0.4452   -5.4887    1.0127 C.2       1 <0>         0.1594
     13 N2          0.7484   -6.7368    0.7129 N.2       1 <0>        -0.5228
     14 C9          0.8415   -7.1347   -0.5325 C.2       1 <0>         0.0662
     15 S2          0.4918   -5.7404   -1.4080 S.3       1 <0>         0.2955
     16 Cl1         1.2254   -8.7175   -1.1333 Cl        1 <0>         0.0516
     17 I1          4.2390   -0.9793   -0.0444 I         1 <0>        -0.0704
     18 H1         -0.9595    1.9033    0.0260 H         1 <0>         0.1080
     19 H2          1.1528    3.1661    0.0077 H         1 <0>         0.1095
     20 H3          3.3051    1.9734   -0.0193 H         1 <0>         0.1116
     21 H4         -0.9254   -0.5573    0.0083 H         1 <0>         0.1026
     22 H5          0.3679   -5.1571    2.0376 H         1 <0>         0.1917
@<TRIPOS>BOND
     1    1    6 ar
     2    1    2 ar
     3    1   18 1
     4    2    3 ar
     5    2   19 1
     6    3    4 ar
     7    3   20 1
     8    4    5 ar
     9    4   17 1
    10    5    6 ar
    11    5    7 1
    12    6   21 1
    13    7    8 1
    14    8    9 2
    15    8   10 2
    16    8   11 1
    17   11   15 1
    18   11   12 2
    19   12   13 1
    20   12   22 1
    21   13   14 2
    22   14   15 1
    23   14   16 1
@<TRIPOS>MOLECULE
ZINC04647496
   37    40     0     0     0
SMALL
USER_CHARGES

@<TRIPOS>ATOM
      1 C1         -0.0187    1.5258    0.0104 C.3       1 <0>        -0.1438
      2 C2          0.0021   -0.0041    0.0020 C.3       1 <0>        -0.0881
      3 H1         -1.0196   -0.3837    0.0097 H         1 <0>         0.0734
      4 C3          0.7256   -0.5013   -1.2529 C.3       1 <0>        -0.1158
      5 C4          0.5364   -2.0114   -1.3962 C.3       1 <0>        -0.0542
      6 C5          0.9501   -2.6879   -0.0917 C.2       1 <0>        -0.0156
      7 C6          1.0320   -1.9762    1.0553 C.2       1 <0>        -0.2127
      8 S1          1.5381   -3.1427    2.2944 S.3       1 <0>         0.0452
      9 C7          1.6408   -4.5800    1.2776 C.ar      1 <0>         0.1401
     10 C8          1.2738   -4.1023   -0.0062 C.ar      1 <0>        -0.2398
     11 C9          1.2623   -5.0529   -1.0670 C.ar      1 <0>         0.5245
     12 N1          1.6005   -6.2974   -0.7344 N.ar      1 <0>        -0.6457
     13 C10         1.9315   -6.6693    0.4857 C.ar      1 <0>         0.3524
     14 N2          1.9627   -5.8351    1.5183 N.ar      1 <0>        -0.5433
     15 N3          0.9207   -4.7053   -2.3615 N.2       1 <0>        -1.0370
     16 S2          0.9246   -5.8528   -3.5555 S.o2      1 <0>         2.6581
     17 O1          2.2765   -6.2553   -3.7275 O.2       1 <0>        -1.0019
     18 O2         -0.1098   -6.7737   -3.2370 O.2       1 <0>        -1.0020
     19 C11         0.4435   -5.0520   -5.0494 C.2       1 <0>        -0.6821
     20 C12         1.2197   -4.4497   -5.9832 C.2       1 <0>        -0.0403
     21 C13         0.6176   -3.8806   -7.0897 C.2       1 <0>        -0.1813
     22 C14        -0.7313   -3.9417   -7.2082 C.2       1 <0>        -0.1654
     23 S3         -1.1920   -4.8301   -5.7298 S.3       1 <0>         0.1431
     24 C15         0.7511   -0.5159    1.2404 C.3       1 <0>        -0.0173
     25 H2          1.0039    1.9031    0.0027 H         1 <0>         0.0537
     26 H3         -0.5459    1.8868   -0.8726 H         1 <0>         0.0541
     27 H4         -0.5289    1.8773    0.9072 H         1 <0>         0.0524
     28 H5          0.3159   -0.0000   -2.1298 H         1 <0>         0.0617
     29 H6          1.7888   -0.2755   -1.1715 H         1 <0>         0.0601
     30 H7         -0.5110   -2.2299   -1.6044 H         1 <0>         0.0738
     31 H8          1.1573   -2.3813   -2.2120 H         1 <0>         0.0993
     32 H9          2.1902   -7.7043    0.6542 H         1 <0>         0.1828
     33 H10         2.2926   -4.4146   -5.8643 H         1 <0>         0.1431
     34 H11         1.2130   -3.3943   -7.8482 H         1 <0>         0.1370
     35 H12        -1.3631   -3.5565   -7.9949 H         1 <0>         0.1889
     36 H13         1.6913    0.0249    1.3492 H         1 <0>         0.0719
     37 H14         0.1356   -0.3681    2.1278 H         1 <0>         0.0707
@<TRIPOS>BOND
     1    1    2 1
     2    1   25 1
     3    1   26 1
     4    1   27 1
     5    2    3 1
     6    2   24 1
     7    2    4 1
     8    4    5 1
     9    4   28 1
    10    4   29 1
    11    5    6 1
    12    5   30 1
    13    5   31 1
    14    6   10 1
    15    6    7 2
    16    7    8 1
    17    7   24 1
    18    8    9 1
    19    9   14 ar
    20    9   10 ar
    21   10   11 ar
    22   11   12 ar
    23   11   15 1
    24   12   13 ar
    25   13   14 ar
    26   13   32 1
    27   15   16 1
    28   16   17 2
    29   16   18 2
    30   16   19 1
    31   19   23 1
    32   19   20 2
    33   20   21 1
    34   20   33 1
    35   21   22 2
    36   21   34 1
    37   22   23 1
    38   22   35 1
    39   24   36 1
    40   24   37 1
@<TRIPOS>MOLECULE
ZINC40692731
   34    35     0     0     0
SMALL
USER_CHARGES

@<TRIPOS>ATOM
      1 C1         -0.0187    1.5258    0.0104 C.3       1 <0>        -0.1337
      2 C2          0.0021   -0.0041    0.0020 C.3       1 <0>         0.0062
      3 C3          0.7421   -0.5109    1.2415 C.3       1 <0>        -0.1335
      4 C4         -1.4333   -0.5336    0.0129 C.3       1 <0>        -0.1359
      5 C5          0.7074   -0.4901   -1.2379 C.2       1 <0>         0.1307
      6 C6          2.0914   -0.4720   -1.4557 C.2       1 <0>        -0.3908
      7 C7          2.3302   -0.9938   -2.6879 C.2       1 <0>         0.3956
      8 O1          1.1462   -1.3287   -3.2282 O.3       1 <0>        -0.1697
      9 N1          0.1349   -1.0055   -2.2912 N.2       1 <0>        -0.3810
     10 N2          3.5696   -1.1515   -3.2797 N.2       1 <0>        -1.0146
     11 S1          3.6859   -1.8081   -4.7955 S.o2      1 <0>         2.6002
     12 O2          3.2605   -3.1595   -4.6864 O.2       1 <0>        -1.0164
     13 O3          3.0725   -0.8859   -5.6857 O.2       1 <0>        -0.9951
     14 C8          5.3967   -1.8510   -5.2148 C.ar      1 <0>        -0.6009
     15 C9          6.0336   -3.0643   -5.3971 C.ar      1 <0>        -0.0257
     16 C10         7.3756   -3.0981   -5.7265 C.ar      1 <0>        -0.1329
     17 C11         8.0815   -1.9184   -5.8738 C.ar      1 <0>        -0.0771
     18 C12         7.4457   -0.7050   -5.6918 C.ar      1 <0>        -0.1196
     19 C13         6.1013   -0.6707   -5.3672 C.ar      1 <0>         0.0035
     20 Br1         5.2289    0.9895   -5.1250 Br        1 <0>        -0.0131
     21 H1          1.0039    1.9031    0.0027 H         1 <0>         0.0620
     22 H2         -0.5459    1.8868   -0.8726 H         1 <0>         0.0554
     23 H3         -0.5289    1.8773    0.9072 H         1 <0>         0.0577
     24 H4          0.2319   -0.1594    2.1383 H         1 <0>         0.0558
     25 H5          0.7568   -1.6008    1.2356 H         1 <0>         0.0563
     26 H6          1.7647   -0.1336    1.2338 H         1 <0>         0.0634
     27 H7         -1.9605   -0.1726   -0.8702 H         1 <0>         0.0600
     28 H8         -1.4185   -1.6235    0.0069 H         1 <0>         0.0563
     29 H9         -1.9435   -0.1821    0.9097 H         1 <0>         0.0535
     30 H10         2.8376   -0.1069   -0.7656 H         1 <0>         0.1335
     31 H11         5.4826   -3.9860   -5.2818 H         1 <0>         0.1467
     32 H12         7.8729   -4.0462   -5.8685 H         1 <0>         0.1335
     33 H13         9.1302   -1.9453   -6.1309 H         1 <0>         0.1334
     34 H14         7.9972    0.2164   -5.8069 H         1 <0>         0.1364
@<TRIPOS>BOND
     1    1    2 1
     2    1   21 1
     3    1   22 1
     4    1   23 1
     5    2    3 1
     6    2    4 1
     7    2    5 1
     8    3   24 1
     9    3   25 1
    10    3   26 1
    11    4   27 1
    12    4   28 1
    13    4   29 1
    14    5    9 2
    15    5    6 1
    16    6    7 2
    17    6   30 1
    18    7    8 1
    19    7   10 1
    20    8    9 1
    21   10   11 1
    22   11   12 2
    23   11   13 2
    24   11   14 1
    25   14   19 ar
    26   14   15 ar
    27   15   16 ar
    28   15   31 1
    29   16   17 ar
    30   16   32 1
    31   17   18 ar
    32   17   33 1
    33   18   19 ar
    34   18   34 1
    35   19   20 1
@<TRIPOS>MOLECULE
ZINC13635882
   46    49     0     0     0
SMALL
USER_CHARGES

@<TRIPOS>ATOM
      1 C1         -0.3173    1.2462    0.1556 C.3       1 <0>         0.0289
      2 O1         -0.1488   -0.1674    0.0314 O.3       1 <0>        -0.3218
      3 C2          0.4760   -0.8066    1.0551 C.ar      1 <0>         0.1113
      4 C3          0.9126   -0.0889    2.1591 C.ar      1 <0>        -0.2063
      5 C4          1.5470   -0.7411    3.1987 C.ar      1 <0>        -0.0779
      6 C5          1.7472   -2.1079    3.1392 C.ar      1 <0>        -0.0953
      7 C6          1.3134   -2.8254    2.0397 C.ar      1 <0>        -0.0738
      8 C7          0.6730   -2.1788    1.0004 C.ar      1 <0>        -0.1489
      9 C8          2.4400   -2.8168    4.2744 C.3       1 <0>        -0.0351
     10 H1          2.7081   -2.0952    5.0461 H         1 <0>         0.0778
     11 C9          3.7057   -3.5053    3.7535 C.3       1 <0>        -0.0586
     12 C10         4.3406   -4.2808    4.8793 C.2       1 <0>         0.2623
     13 C11         3.5464   -4.7984    5.9292 C.2       1 <0>        -0.4966
     14 C12         2.2196   -4.6276    5.9552 C.2       1 <0>         0.2938
     15 O2          1.5068   -5.1383    6.9818 O.3       1 <0>        -0.7138
     16 C13         1.5048   -3.8755    4.8649 C.3       1 <0>        -0.1128
     17 N1          5.6253   -4.4755    4.8852 N.2       1 <0>        -0.6299
     18 C14         6.2665   -5.0985    6.0459 C.3       1 <0>         0.0837
     19 C15         7.2378   -4.1267    6.6650 C.ar      1 <0>        -0.0378
     20 C16         8.5522   -4.0985    6.2374 C.ar      1 <0>        -0.0996
     21 C17         9.4469   -3.2086    6.8018 C.ar      1 <0>        -0.1020
     22 C18         9.0278   -2.3425    7.7986 C.ar      1 <0>         0.0112
     23 C19         7.7037   -2.3709    8.2294 C.ar      1 <0>         0.0289
     24 C20         6.8112   -3.2615    7.6551 C.ar      1 <0>        -0.0909
     25 O3          7.5430   -1.4327    9.2077 O.3       1 <0>        -0.3109
     26 C21         8.8734   -1.1132    9.6563 C.3       1 <0>         0.2136
     27 O4          9.6966   -1.3864    8.5070 O.3       1 <0>        -0.3149
     28 H2          0.6593    1.7220    0.2456 H         1 <0>         0.0534
     29 H3         -0.8286    1.6302   -0.7271 H         1 <0>         0.0958
     30 H4         -0.9110    1.4647    1.0432 H         1 <0>         0.0534
     31 H5          0.7570    0.9788    2.2057 H         1 <0>         0.1236
     32 H6          1.8871   -0.1829    4.0584 H         1 <0>         0.1241
     33 H7          1.4713   -3.8928    1.9955 H         1 <0>         0.1311
     34 H8          0.3304   -2.7403    0.1438 H         1 <0>         0.1273
     35 H9          3.4436   -4.1863    2.9437 H         1 <0>         0.0730
     36 H10         4.4056   -2.7539    3.3880 H         1 <0>         0.0721
     37 H11         4.0227   -5.3452    6.7295 H         1 <0>         0.0951
     38 H12         0.6201   -3.3896    5.2763 H         1 <0>         0.0653
     39 H13         1.2050   -4.5723    4.0821 H         1 <0>         0.0699
     40 H14         5.5065   -5.3693    6.7789 H         1 <0>         0.0638
     41 H15         6.8008   -5.9940    5.7287 H         1 <0>         0.0639
     42 H16         8.8809   -4.7735    5.4610 H         1 <0>         0.1354
     43 H17        10.4731   -3.1887    6.4658 H         1 <0>         0.1295
     44 H18         5.7827   -3.2827    7.9841 H         1 <0>         0.1342
     45 H19         8.9414   -0.0616    9.9350 H         1 <0>         0.1259
     46 H20         9.1592   -1.7513   10.4925 H         1 <0>         0.0787
@<TRIPOS>BOND
     1    1    2 1
     2    1   28 1
     3    1   29 1
     4    1   30 1
     5    2    3 1
     6    3    8 ar
     7    3    4 ar
     8    4    5 ar
     9    4   31 1
    10    5    6 ar
    11    5   32 1
    12    6    7 ar
    13    6    9 1
    14    7    8 ar
    15    7   33 1
    16    8   34 1
    17    9   10 1
    18    9   16 1
    19    9   11 1
    20   11   12 1
    21   11   35 1
    22   11   36 1
    23   12   13 1
    24   12   17 2
    25   13   14 2
    26   13   37 1
    27   14   15 1
    28   14   16 1
    29   16   38 1
    30   16   39 1
    31   17   18 1
    32   18   19 1
    33   18   40 1
    34   18   41 1
    35   19   24 ar
    36   19   20 ar
    37   20   21 ar
    38   20   42 1
    39   21   22 ar
    40   21   43 1
    41   22   27 1
    42   22   23 ar
    43   23   24 ar
    44   23   25 1
    45   24   44 1
    46   25   26 1
    47   26   27 1
    48   26   45 1
    49   26   46 1
@<TRIPOS>MOLECULE
ZINC66087435
   13    13     0     0     0
SMALL
USER_CHARGES

@<TRIPOS>ATOM
      1 C1         -0.0164    1.3581    0.0095 C.ar      1 <0>         0.0711
      2 C2          1.1999    2.0766    0.0018 C.ar      1 <0>        -0.2225
      3 C3          2.4254    1.3740   -0.0137 C.ar      1 <0>         0.0383
      4 C4          2.4245    0.0117   -0.0210 C.ar      1 <0>        -0.2283
      5 C5          1.2178   -0.6898   -0.0137 C.ar      1 <0>         0.3519
      6 C6          0.0021   -0.0041    0.0020 C.ar      1 <0>        -0.2306
      7 I1         -1.7997   -1.0729    0.0142 I         1 <0>        -0.0547
      8 O1          1.2265   -2.0440   -0.0215 O.3       1 <0>        -0.5996
      9 I2          4.2400   -1.0336   -0.0440 I         1 <0>        -0.0580
     10 N1          1.1913    3.4094    0.0086 N.2       1 <0>        -0.2960
     11 O2          2.2421    4.0253    0.0018 O.2       1 <0>        -0.0266
     12 H1         -0.9579    1.8870    0.0258 H         1 <0>         0.1213
     13 H2          3.3600    1.9152   -0.0201 H         1 <0>         0.1339
@<TRIPOS>BOND
     1    1    6 ar
     2    1    2 ar
     3    1   12 1
     4    2    3 ar
     5    2   10 1
     6    3    4 ar
     7    3   13 1
     8    4    5 ar
     9    4    9 1
    10    5    6 ar
    11    5    8 1
    12    6    7 1
    13   10   11 2
@<TRIPOS>MOLECULE
ZINC10362342
   50    52     0     0     0
SMALL
USER_CHARGES
methyl 1-(4-chlorophenyl)-4-(3-ethoxy-4-hydroxy-phenyl)-6-methyl-2-thioxo-3,4-dihydropyrimidine-5-carboxylate
@<TRIPOS>ATOM
      1 C1         -3.7888    5.3189    0.3252 C.3       1 <0>        -0.1538
      2 C2         -2.7875    4.1624    0.3006 C.3       1 <0>         0.0513
      3 O1         -1.5413    4.5997    0.8464 O.3       1 <0>        -0.3039
      4 C3         -0.5353    3.6860    0.8980 C.ar      1 <0>         0.1055
      5 C4         -0.7416    2.3988    0.4282 C.ar      1 <0>        -0.1512
      6 C5          0.2805    1.4698    0.4862 C.ar      1 <0>        -0.0865
      7 C6          1.5129    1.8247    1.0026 C.ar      1 <0>        -0.1216
      8 C7          1.7270    3.1087    1.4677 C.ar      1 <0>        -0.1069
      9 C8          0.7052    4.0433    1.4174 C.ar      1 <0>         0.0857
     10 O2          0.9144    5.3070    1.8741 O.3       1 <0>        -0.4853
     11 C9          0.0528    0.0689   -0.0204 C.3       1 <0>         0.2186
     12 H1         -1.0181   -0.1301    0.0208 H         1 <0>         0.1054
     13 C10         0.4801    0.0224   -1.4734 C.2       1 <0>        -0.2570
     14 C11         1.4398   -0.8637   -1.8185 C.2       1 <0>         0.2413
     15 N1          2.0046   -1.6889   -0.8878 N.pl3     1 <0>        -0.4529
     16 C12         1.6649   -1.6896    0.4074 C.2       1 <0>         0.5436
     17 S1          2.4522   -2.7776    1.4692 S.2       1 <0>        -0.5586
     18 N2          0.7234   -0.8622    0.9025 N.pl3     1 <0>        -0.6433
     19 C13         2.9942   -2.5850   -1.3122 C.ar      1 <0>         0.1211
     20 C14         4.3296   -2.2045   -1.2974 C.ar      1 <0>        -0.0736
     21 C15         5.3038   -3.0917   -1.7110 C.ar      1 <0>        -0.0964
     22 C16         4.9491   -4.3551   -2.1507 C.ar      1 <0>        -0.0152
     23 C17         3.6185   -4.7347   -2.1718 C.ar      1 <0>        -0.0966
     24 C18         2.6410   -3.8532   -1.7539 C.ar      1 <0>        -0.0740
     25 Cl1         6.1756   -5.4657   -2.6762 Cl        1 <0>        -0.0553
     26 C19         1.8946   -0.9431   -3.2530 C.3       1 <0>        -0.1243
     27 C20        -0.1053    0.8778   -2.4356 C.2       1 <0>         0.5345
     28 O3          0.2536    0.8230   -3.5970 O.2       1 <0>        -0.5048
     29 O4         -1.0620    1.7548   -2.0656 O.3       1 <0>        -0.3457
     30 C21        -1.6094    2.5879   -3.0895 C.3       1 <0>         0.0321
     31 H2         -3.4024    6.1468   -0.2692 H         1 <0>         0.0667
     32 H3         -4.7394    4.9854   -0.0911 H         1 <0>         0.0798
     33 H4         -3.9382    5.6484    1.3534 H         1 <0>         0.0679
     34 H5         -2.6381    3.8329   -0.7276 H         1 <0>         0.0630
     35 H6         -3.1739    3.3345    0.8950 H         1 <0>         0.0625
     36 H7         -1.7021    2.1202    0.0205 H         1 <0>         0.1429
     37 H8          2.3101    1.0972    1.0424 H         1 <0>         0.1197
     38 H9          2.6907    3.3834    1.8707 H         1 <0>         0.1381
     39 H10         1.2406    5.9197    1.2008 H         1 <0>         0.3888
     40 H11         0.4931   -0.8793    1.8446 H         1 <0>         0.4496
     41 H12         4.6065   -1.2170   -0.9589 H         1 <0>         0.1365
     42 H13         6.3430   -2.7979   -1.6952 H         1 <0>         0.1453
     43 H14         3.3443   -5.7213   -2.5151 H         1 <0>         0.1454
     44 H15         1.6027   -4.1501   -1.7702 H         1 <0>         0.1370
     45 H16         2.6666   -1.7068   -3.3477 H         1 <0>         0.0781
     46 H17         1.0478   -1.2016   -3.8888 H         1 <0>         0.1101
     47 H18         2.2983    0.0217   -3.5601 H         1 <0>         0.1096
     48 H19        -2.3656    3.2440   -2.6585 H         1 <0>         0.0995
     49 H20        -0.8153    3.1898   -3.5313 H         1 <0>         0.0628
     50 H21        -2.0647    1.9654   -3.8597 H         1 <0>         0.0643
@<TRIPOS>BOND
     1    1    2 1
     2    1   31 1
     3    1   32 1
     4    1   33 1
     5    2    3 1
     6    2   34 1
     7    2   35 1
     8    3    4 1
     9    4    9 ar
    10    4    5 ar
    11    5    6 ar
    12    5   36 1
    13    6    7 ar
    14    6   11 1
    15    7    8 ar
    16    7   37 1
    17    8    9 ar
    18    8   38 1
    19    9   10 1
    20   10   39 1
    21   11   12 1
    22   11   18 1
    23   11   13 1
    24   13   14 2
    25   13   27 1
    26   14   15 1
    27   14   26 1
    28   15   16 1
    29   15   19 1
    30   16   17 2
    31   16   18 1
    32   18   40 1
    33   19   24 ar
    34   19   20 ar
    35   20   21 ar
    36   20   41 1
    37   21   22 ar
    38   21   42 1
    39   22   23 ar
    40   22   25 1
    41   23   24 ar
    42   23   43 1
    43   24   44 1
    44   26   45 1
    45   26   46 1
    46   26   47 1
    47   27   28 2
    48   27   29 1
    49   29   30 1
    50   30   48 1
    51   30   49 1
    52   30   50 1
@<TRIPOS>MOLECULE
ZINC20706311
   54    57     0     0     0
SMALL
USER_CHARGES
(3aS,4S,9bR)-N-butyl-4-(2-chloro-5-nitro-phenyl)-3a,4,5,9b-tetrahydro-3H-cyclopenta[c]quinoline-6-carboxamide
@<TRIPOS>ATOM
      1 C1         -6.0895   -4.9760   -0.3486 C.3       1 <0>        -0.1546
      2 C2         -4.8820   -4.2501    0.2479 C.3       1 <0>        -0.1227
      3 C3         -4.5892   -2.9904   -0.5697 C.3       1 <0>        -0.1322
      4 C4         -3.3817   -2.2644    0.0268 C.3       1 <0>         0.1217
      5 N1         -3.1014   -1.0583   -0.7560 N.am      1 <0>        -0.7378
      6 C5         -2.0744   -0.2558   -0.4129 C.2       1 <0>         0.5747
      7 O1         -1.3804   -0.5330    0.5464 O.2       1 <0>        -0.5521
      8 C6         -1.7923    0.9581   -1.2007 C.ar      1 <0>        -0.2155
      9 C7         -2.6667    1.3502   -2.2148 C.ar      1 <0>        -0.0454
     10 C8         -2.3956    2.4856   -2.9459 C.ar      1 <0>        -0.1803
     11 C9         -1.2641    3.2337   -2.6768 C.ar      1 <0>        -0.0452
     12 C10        -0.3830    2.8614   -1.6721 C.ar      1 <0>        -0.1594
     13 C11        -0.6404    1.7217   -0.9290 C.ar      1 <0>         0.2848
     14 N2          0.1991    1.2940    0.0875 N.pl3     1 <0>        -0.7260
     15 C12         1.5767    1.7504   -0.1004 C.3       1 <0>         0.1805
     16 H1          1.9515    1.2989   -1.0308 H         1 <0>         0.0921
     17 C13         1.5988    3.2788   -0.1802 C.3       1 <0>        -0.1083
     18 H2          1.2148    3.6696    0.7736 H         1 <0>         0.1042
     19 C14         0.8228    3.7233   -1.4388 C.3       1 <0>        -0.0031
     20 H3          0.4272    4.7474   -1.3695 H         1 <0>         0.1015
     21 C15         1.8196    3.5620   -2.5634 C.2       1 <0>        -0.1591
     22 C16         3.0422    3.5521   -2.0938 C.2       1 <0>        -0.1692
     23 C17         3.0351    3.7133   -0.5865 C.3       1 <0>        -0.0920
     24 C18         2.4202    1.2951    1.0624 C.ar      1 <0>        -0.0858
     25 C19         2.7787    2.1934    2.0501 C.ar      1 <0>        -0.0308
     26 C20         3.5480    1.7747    3.1194 C.ar      1 <0>        -0.0435
     27 C21         3.9682    0.4597    3.1965 C.ar      1 <0>        -0.0375
     28 C22         3.6152   -0.4379    2.2068 C.ar      1 <0>        -0.1095
     29 C23         2.8407   -0.0205    1.1388 C.ar      1 <0>         0.0237
     30 Cl1         2.3964   -1.1477   -0.1045 Cl        1 <0>        -0.0209
     31 N3          3.9272    2.7358    4.1791 N.pl3     1 <0>         0.0272
     32 O2          4.6092    2.3683    5.1189 O.2       1 <0>        -0.1515
     33 O3          3.5572    3.8943    4.1114 O.3       1 <0>        -0.1519
     34 H4         -6.3000   -5.8816    0.2392 H         1 <0>         0.0570
     35 H5         -5.8710   -5.2569   -1.3894 H         1 <0>         0.0550
     36 H6         -6.9656   -4.3113   -0.3244 H         1 <0>         0.0552
     37 H7         -5.1005   -3.9691    1.2887 H         1 <0>         0.0653
     38 H8         -4.0059   -4.9148    0.2238 H         1 <0>         0.0649
     39 H9         -4.3707   -3.2714   -1.6105 H         1 <0>         0.0695
     40 H10        -5.4653   -2.3257   -0.5456 H         1 <0>         0.0698
     41 H11        -3.6002   -1.9834    1.0676 H         1 <0>         0.0660
     42 H12        -2.5055   -2.9290    0.0027 H         1 <0>         0.0656
     43 H13        -3.7291   -0.8076   -1.6238 H         1 <0>         0.4193
     44 H14        -3.5511    0.7670   -2.4250 H         1 <0>         0.1212
     45 H15        -3.0690    2.7926   -3.7324 H         1 <0>         0.1247
     46 H16        -1.0634    4.1218   -3.2577 H         1 <0>         0.1243
     47 H17        -0.0631    0.6827    0.9636 H         1 <0>         0.4535
     48 H18         1.6449    3.4603   -3.6447 H         1 <0>         0.1314
     49 H19         3.8941    3.4370   -2.7801 H         1 <0>         0.1313
     50 H20         3.2045    4.7551   -0.2766 H         1 <0>         0.0875
     51 H21         3.7694    3.0599   -0.0926 H         1 <0>         0.0695
     52 H22         2.4542    3.2217    1.9883 H         1 <0>         0.1670
     53 H23         4.5726    0.1341    4.0301 H         1 <0>         0.1651
     54 H24         3.9435   -1.4650    2.2672 H         1 <0>         0.1607
@<TRIPOS>BOND
     1    1    2 1
     2    1   34 1
     3    1   35 1
     4    1   36 1
     5    2    3 1
     6    2   37 1
     7    2   38 1
     8    3    4 1
     9    3   39 1
    10    3   40 1
    11    4    5 1
    12    4   41 1
    13    4   42 1
    14    5    6 am
    15    5   43 1
    16    6    7 2
    17    6    8 1
    18    8   13 ar
    19    8    9 ar
    20    9   10 ar
    21    9   44 1
    22   10   11 ar
    23   10   45 1
    24   11   12 ar
    25   11   46 1
    26   12   19 1
    27   12   13 ar
    28   13   14 1
    29   14   15 1
    30   14   47 1
    31   15   16 1
    32   15   17 1
    33   15   24 1
    34   17   18 1
    35   17   23 1
    36   17   19 1
    37   19   20 1
    38   19   21 1
    39   21   22 2
    40   21   48 1
    41   22   23 1
    42   22   49 1
    43   23   50 1
    44   23   51 1
    45   24   29 ar
    46   24   25 ar
    47   25   26 ar
    48   25   52 1
    49   26   27 ar
    50   26   31 1
    51   27   28 ar
    52   27   53 1
    53   28   29 ar
    54   28   54 1
    55   29   30 1
    56   31   32 2
    57   31   33 1
@<TRIPOS>MOLECULE
ZINC08582586
   55    58     0     0     0
SMALL
USER_CHARGES

@<TRIPOS>ATOM
      1 C1         -0.0184    1.5028    0.0103 C.3       1 <0>        -0.1058
      2 C2          0.0021   -0.0041    0.0020 C.2       1 <0>        -0.0592
      3 C3          0.0059   -0.6770   -1.1598 C.2       1 <0>        -0.1656
      4 S1          0.0321   -2.3845   -0.6478 S.3       1 <0>         0.1372
      5 C4          0.0372   -2.1444    1.1101 C.2       1 <0>         0.1095
      6 C5          0.0240   -0.7448    1.2495 C.2       1 <0>        -0.2476
      7 C6          0.0292   -0.2565    2.5968 C.2       1 <0>         0.5591
      8 N1          0.0506   -1.1417    3.6105 N.am      1 <0>        -0.6321
      9 C7          0.0672   -2.4797    3.3795 C.2       1 <0>         0.3890
     10 N2          0.0536   -2.9560    2.1634 N.2       1 <0>        -0.4720
     11 C8          0.0914   -3.4321    4.5472 C.3       1 <0>         0.1831
     12 N3          0.1061   -4.8110    4.0524 N.am      1 <0>        -0.6034
     13 C9          1.3820   -5.4826    3.7933 C.3       1 <0>         0.2009
     14 C10         1.8386   -6.1926    5.0417 C.2       1 <0>        -0.1799
     15 C11         1.5846   -7.4621    5.4431 C.2       1 <0>        -0.1322
     16 C12         2.1148   -7.9054    6.6402 C.2       1 <0>        -0.1597
     17 C13         2.8731   -7.0575    7.3773 C.2       1 <0>        -0.1620
     18 S2          2.8610   -5.5823    6.3719 S.3       1 <0>         0.0447
     19 C14        -1.0542   -5.4615    3.8357 C.2       1 <0>         0.7221
     20 O1         -2.1131   -4.9041    4.0508 O.2       1 <0>        -0.5789
     21 N4         -1.0407   -6.7301    3.3806 N.am      1 <0>        -0.7362
     22 C15        -2.3019   -7.4372    3.1450 C.3       1 <0>         0.1634
     23 C16        -2.7855   -8.0669    4.4529 C.3       1 <0>        -0.1276
     24 C17        -4.1027   -8.8055    4.2069 C.3       1 <0>        -0.1177
     25 C18        -3.8850   -9.9023    3.1627 C.3       1 <0>        -0.1223
     26 C19        -3.4014   -9.2727    1.8548 C.3       1 <0>        -0.1157
     27 C20        -2.0842   -8.5341    2.1008 C.3       1 <0>        -0.1264
     28 O2          0.0149    0.9415    2.8211 O.2       1 <0>        -0.5197
     29 C21        -0.0090   -0.1219   -2.5608 C.3       1 <0>        -0.0676
     30 H1          1.0042    1.8801    0.0026 H         1 <0>         0.0721
     31 H2         -0.5455    1.8639   -0.8728 H         1 <0>         0.0676
     32 H3         -0.5286    1.8543    0.9071 H         1 <0>         0.0823
     33 H4          0.9845   -3.2511    5.1452 H         1 <0>         0.1182
     34 H5         -0.7952   -3.2760    5.1618 H         1 <0>         0.1295
     35 H6          1.2543   -6.2074    2.9892 H         1 <0>         0.1020
     36 H7          2.1287   -4.7441    3.5015 H         1 <0>         0.0996
     37 H8          0.9767   -8.1173    4.8368 H         1 <0>         0.1300
     38 H9          1.9274   -8.9121    6.9832 H         1 <0>         0.1350
     39 H10         3.3613   -7.2307    8.3249 H         1 <0>         0.1866
     40 H11        -0.1959   -7.1748    3.2090 H         1 <0>         0.3936
     41 H12        -3.0508   -6.7334    2.7819 H         1 <0>         0.0891
     42 H13        -2.0366   -8.7708    4.8160 H         1 <0>         0.0615
     43 H14        -2.9406   -7.2855    5.1968 H         1 <0>         0.0674
     44 H15        -4.4472   -9.2541    5.1387 H         1 <0>         0.0644
     45 H16        -4.8516   -8.1016    3.8438 H         1 <0>         0.0645
     46 H17        -3.1361  -10.6062    3.5258 H         1 <0>         0.0622
     47 H18        -4.8234  -10.4285    2.9874 H         1 <0>         0.0640
     48 H19        -3.2463  -10.0541    1.1109 H         1 <0>         0.0677
     49 H20        -4.1503   -8.5688    1.4917 H         1 <0>         0.0658
     50 H21        -1.7397   -8.0855    1.1691 H         1 <0>         0.0695
     51 H22        -1.3353   -9.2380    2.4639 H         1 <0>         0.0667
     52 H23         1.0149    0.0265   -2.9037 H         1 <0>         0.0812
     53 H24        -0.5163   -0.8228   -3.2239 H         1 <0>         0.0757
     54 H25        -0.5366    0.8319   -2.5681 H         1 <0>         0.0849
     55 H26         0.0546   -0.8172    4.5246 H         1 <0>         0.4217
@<TRIPOS>BOND
     1    1    2 1
     2    1   30 1
     3    1   31 1
     4    1   32 1
     5    2    6 1
     6    2    3 2
     7    3    4 1
     8    3   29 1
     9    4    5 1
    10    5   10 1
    11    5    6 2
    12    6    7 1
    13    7    8 am
    14    7   28 2
    15    8    9 1
    16    8   55 1
    17    9   10 2
    18    9   11 1
    19   11   12 1
    20   11   33 1
    21   11   34 1
    22   12   13 1
    23   12   19 am
    24   13   14 1
    25   13   35 1
    26   13   36 1
    27   14   18 1
    28   14   15 2
    29   15   16 1
    30   15   37 1
    31   16   17 2
    32   16   38 1
    33   17   18 1
    34   17   39 1
    35   19   20 2
    36   19   21 am
    37   21   22 1
    38   21   40 1
    39   22   27 1
    40   22   23 1
    41   22   41 1
    42   23   24 1
    43   23   42 1
    44   23   43 1
    45   24   25 1
    46   24   44 1
    47   24   45 1
    48   25   26 1
    49   25   46 1
    50   25   47 1
    51   26   27 1
    52   26   48 1
    53   26   49 1
    54   27   50 1
    55   27   51 1
    56   29   52 1
    57   29   53 1
    58   29   54 1
@<TRIPOS>MOLECULE
ZINC45829068
   56    59     0     0     0
SMALL
USER_CHARGES

@<TRIPOS>ATOM
      1 C1          0.5068    1.0670   -0.5123 C.3       1 <0>        -0.1155
      2 C2         -0.2374   -0.2195   -0.2630 C.ar      1 <0>        -0.0673
      3 C3         -1.1158   -0.7049   -1.2147 C.ar      1 <0>        -0.1336
      4 C4         -1.8001   -1.8851   -0.9900 C.ar      1 <0>        -0.0951
      5 C5         -1.6084   -2.5832    0.1864 C.ar      1 <0>        -0.1261
      6 C6         -0.7272   -2.0985    1.1438 C.ar      1 <0>         0.1476
      7 C7         -0.0373   -0.9154    0.9128 C.ar      1 <0>        -0.1459
      8 N1         -0.5311   -2.8030    2.3367 N.am      1 <0>        -0.6705
      9 C8         -0.6003   -4.1490    2.3436 C.2       1 <0>         0.5318
     10 O1         -0.7398   -4.7544    1.3020 O.2       1 <0>        -0.4915
     11 C9         -0.5043   -4.9018    3.6456 C.3       1 <0>        -0.1516
     12 S1         -0.6302   -6.6828    3.3251 S.3       1 <0>        -0.0904
     13 C10        -0.4986   -7.4352    4.9704 C.3       1 <0>        -0.1515
     14 C11        -0.5894   -8.9343    4.8460 C.2       1 <0>         0.5314
     15 O2         -0.7292   -9.4449    3.7547 O.2       1 <0>        -0.4888
     16 N2         -0.5153   -9.7076    5.9473 N.am      1 <0>        -0.6662
     17 C12        -0.4914  -11.1029    5.8232 C.ar      1 <0>         0.1560
     18 C13        -1.0861  -11.8967    6.7949 C.ar      1 <0>        -0.1347
     19 C14        -1.0643  -13.2729    6.6734 C.ar      1 <0>        -0.0812
     20 C15        -0.4491  -13.8648    5.5822 C.ar      1 <0>         0.0183
     21 C16         0.1487  -13.0710    4.6059 C.ar      1 <0>         0.0567
     22 C17         0.1218  -11.6917    4.7259 C.ar      1 <0>        -0.1061
     23 O3          0.6787  -13.8845    3.6449 O.3       1 <0>        -0.2878
     24 C18         0.7430  -15.1877    4.2418 C.3       1 <0>         0.2652
     25 O4         -0.2931  -15.1774    5.2341 O.3       1 <0>        -0.2968
     26 C19         2.1035  -15.4052    4.8953 C.3       1 <0>        -0.1488
     27 C20         3.1960  -15.3777    3.8232 C.3       1 <0>        -0.1152
     28 C21         2.9254  -16.4767    2.7936 C.3       1 <0>        -0.1244
     29 C22         1.5672  -16.2357    2.1317 C.3       1 <0>        -0.1170
     30 C23         0.4688  -16.2646    3.1977 C.3       1 <0>        -0.1129
     31 H1          1.4496    0.8500   -1.0143 H         1 <0>         0.0724
     32 H2         -0.0978    1.7205   -1.1413 H         1 <0>         0.0689
     33 H3          0.7067    1.5612    0.4385 H         1 <0>         0.0666
     34 H4         -1.2677   -0.1608   -2.1351 H         1 <0>         0.1242
     35 H5         -2.4856   -2.2614   -1.7350 H         1 <0>         0.1275
     36 H6         -2.1435   -3.5048    0.3615 H         1 <0>         0.1347
     37 H7          0.6518   -0.5379    1.6538 H         1 <0>         0.1250
     38 H8         -0.3452   -2.3227    3.1587 H         1 <0>         0.4120
     39 H9          0.4522   -4.6849    4.1211 H         1 <0>         0.1154
     40 H10        -1.3159   -4.5930    4.3045 H         1 <0>         0.1166
     41 H11         0.4579   -7.1650    5.4180 H         1 <0>         0.1173
     42 H12        -1.3102   -7.0732    5.6015 H         1 <0>         0.1166
     43 H13        -0.4786   -9.2982    6.8259 H         1 <0>         0.4157
     44 H14        -1.5666  -11.4379    7.6464 H         1 <0>         0.1418
     45 H15        -1.5273  -13.8883    7.4306 H         1 <0>         0.1409
     46 H16         0.5814  -11.0745    3.9681 H         1 <0>         0.1471
     47 H17         2.2880  -14.6142    5.6222 H         1 <0>         0.0734
     48 H18         2.1139  -16.3714    5.3998 H         1 <0>         0.0898
     49 H19         3.1945  -14.4069    3.3275 H         1 <0>         0.0715
     50 H20         4.1668  -15.5469    4.2889 H         1 <0>         0.0726
     51 H21         3.7070  -16.4630    2.0340 H         1 <0>         0.0705
     52 H22         2.9199  -17.4467    3.2909 H         1 <0>         0.0660
     53 H23         1.5703  -15.2632    1.6394 H         1 <0>         0.0736
     54 H24         1.3787  -17.0159    1.3943 H         1 <0>         0.0761
     55 H25         0.4558  -17.2424    3.6792 H         1 <0>         0.0926
     56 H26        -0.4973  -16.0781    2.7288 H         1 <0>         0.0830
@<TRIPOS>BOND
     1    1    2 1
     2    1   31 1
     3    1   32 1
     4    1   33 1
     5    2    7 ar
     6    2    3 ar
     7    3    4 ar
     8    3   34 1
     9    4    5 ar
    10    4   35 1
    11    5    6 ar
    12    5   36 1
    13    6    7 ar
    14    6    8 1
    15    7   37 1
    16    8    9 am
    17    8   38 1
    18    9   10 2
    19    9   11 1
    20   11   12 1
    21   11   39 1
    22   11   40 1
    23   12   13 1
    24   13   14 1
    25   13   41 1
    26   13   42 1
    27   14   15 2
    28   14   16 am
    29   16   17 1
    30   16   43 1
    31   17   22 ar
    32   17   18 ar
    33   18   19 ar
    34   18   44 1
    35   19   20 ar
    36   19   45 1
    37   20   25 1
    38   20   21 ar
    39   21   22 ar
    40   21   23 1
    41   22   46 1
    42   23   24 1
    43   24   30 1
    44   24   25 1
    45   24   26 1
    46   26   27 1
    47   26   47 1
    48   26   48 1
    49   27   28 1
    50   27   49 1
    51   27   50 1
    52   28   29 1
    53   28   51 1
    54   28   52 1
    55   29   30 1
    56   29   53 1
    57   29   54 1
    58   30   55 1
    59   30   56 1
@<TRIPOS>MOLECULE
ZINC67237236
   49    52     0     0     0
SMALL
USER_CHARGES

@<TRIPOS>ATOM
      1 C1         -2.2188    1.0987    0.2105 C.3       1 <0>        -0.1199
      2 C2         -1.8512   -0.3624    0.1776 C.ar      1 <0>        -0.0618
      3 C3         -2.8435   -1.3246    0.2198 C.ar      1 <0>        -0.1113
      4 C4         -2.5098   -2.6645    0.1903 C.ar      1 <0>        -0.0801
      5 C5         -1.1764   -3.0450    0.1178 C.ar      1 <0>         0.0870
      6 C6         -0.1824   -2.0764    0.0752 C.ar      1 <0>        -0.0840
      7 C7         -0.5227   -0.7381    0.0998 C.ar      1 <0>        -0.1104
      8 N1         -0.8347   -4.4032    0.0882 N.am      1 <0>        -0.4663
      9 C8         -0.8872   -5.0836   -1.0777 C.2       1 <0>         0.5703
     10 O1         -1.2292   -4.5283   -2.1087 O.2       1 <0>        -0.5227
     11 C9         -0.5384   -6.4464   -1.0767 C.2       1 <0>        -0.1020
     12 C10        -0.1516   -7.0417    0.1301 C.2       1 <0>         0.1235
     13 C11         0.1375   -8.3930   -0.1612 C.2       1 <0>        -0.1849
     14 C12        -0.0692   -8.5864   -1.4795 C.2       1 <0>         0.0993
     15 N2         -0.4785   -7.4206   -2.0511 N.pl3     1 <0>        -0.5182
     16 H1         -0.6924   -7.2957   -2.9890 H         1 <0>         0.4252
     17 C13         0.1232   -9.8917   -2.2077 C.3       1 <0>        -0.0959
     18 N3         -0.1216   -6.3032    1.2567 N.2       1 <0>        -0.4981
     19 C14        -0.4446   -5.0311    1.2386 C.2       1 <0>         0.3349
     20 S1         -0.3808   -4.1092    2.7388 S.3       1 <0>         0.0903
     21 C15         0.1742   -5.3173    3.9730 C.3       1 <0>        -0.1543
     22 C16         0.2726   -4.6498    5.3205 C.2       1 <0>         0.5387
     23 O2         -0.0045   -3.4747    5.4369 O.2       1 <0>        -0.4926
     24 N4          0.6685   -5.3585    6.3963 N.am      1 <0>        -0.6584
     25 C17         0.6722   -4.7639    7.6635 C.ar      1 <0>         0.1918
     26 C18        -0.1053   -3.6398    7.9064 C.ar      1 <0>        -0.1670
     27 C19        -0.0997   -3.0548    9.1599 C.ar      1 <0>         0.1327
     28 C20         0.6807   -3.5900   10.1714 C.ar      1 <0>        -0.1611
     29 C21         1.4559   -4.7091    9.9313 C.ar      1 <0>        -0.0551
     30 C22         1.4498   -5.3011    8.6822 C.ar      1 <0>        -0.0845
     31 Cl1         2.4179   -6.7110    8.3845 Cl        1 <0>        -0.0541
     32 F1         -0.8555   -1.9605    9.3975 F         1 <0>        -0.1275
     33 H2         -2.3651    1.4595   -0.8076 H         1 <0>         0.0756
     34 H3         -3.1402    1.2290    0.7781 H         1 <0>         0.0713
     35 H4         -1.4169    1.6646    0.6847 H         1 <0>         0.0714
     36 H5         -3.8804   -1.0280    0.2761 H         1 <0>         0.1337
     37 H6         -3.2852   -3.4155    0.2239 H         1 <0>         0.1267
     38 H7          0.8557   -2.3693    0.0189 H         1 <0>         0.1287
     39 H8          0.2498    0.0158    0.0626 H         1 <0>         0.1343
     40 H9          0.4660   -9.1395    0.5468 H         1 <0>         0.1564
     41 H10        -0.8089  -10.4565   -2.1935 H         1 <0>         0.0847
     42 H11         0.4119   -9.6928   -3.2398 H         1 <0>         0.0736
     43 H12         0.9058  -10.4699   -1.7165 H         1 <0>         0.0926
     44 H13        -0.5412   -6.1380    4.0254 H         1 <0>         0.1365
     45 H14         1.1520   -5.7053    3.6875 H         1 <0>         0.1357
     46 H15         0.9508   -6.2807    6.2925 H         1 <0>         0.4209
     47 H16        -0.7134   -3.2223    7.1176 H         1 <0>         0.1758
     48 H17         0.6838   -3.1319   11.1495 H         1 <0>         0.1483
     49 H18         2.0636   -5.1240   10.7218 H         1 <0>         0.1504
@<TRIPOS>BOND
     1    1    2 1
     2    1   33 1
     3    1   34 1
     4    1   35 1
     5    2    7 ar
     6    2    3 ar
     7    3    4 ar
     8    3   36 1
     9    4    5 ar
    10    4   37 1
    11    5    6 ar
    12    5    8 1
    13    6    7 ar
    14    6   38 1
    15    7   39 1
    16    8   19 1
    17    8    9 am
    18    9   10 2
    19    9   11 1
    20   11   15 1
    21   11   12 2
    22   12   13 1
    23   12   18 1
    24   13   14 2
    25   13   40 1
    26   14   15 1
    27   14   17 1
    28   15   16 1
    29   17   41 1
    30   17   42 1
    31   17   43 1
    32   18   19 2
    33   19   20 1
    34   20   21 1
    35   21   22 1
    36   21   44 1
    37   21   45 1
    38   22   23 2
    39   22   24 am
    40   24   25 1
    41   24   46 1
    42   25   30 ar
    43   25   26 ar
    44   26   27 ar
    45   26   47 1
    46   27   28 ar
    47   27   32 1
    48   28   29 ar
    49   28   48 1
    50   29   30 ar
    51   29   49 1
    52   30   31 1
@<TRIPOS>MOLECULE
ZINC16678732
   29    30     0     0     0
SMALL
USER_CHARGES
[(3S)-1-(5-bromopyrimidin-2-yl)-3-piperidyl]methanol
@<TRIPOS>ATOM
      1 C1         -1.2353    3.3326    0.0318 C.ar      1 <0>         0.1947
      2 C2         -0.0530    4.0574    0.0244 C.ar      1 <0>        -0.2166
      3 C3          1.1485    3.3651    0.0092 C.ar      1 <0>         0.1955
      4 N1          1.1308    2.0424    0.0022 N.ar      1 <0>        -0.5347
      5 C4         -0.0167    1.3803    0.0096 C.ar      1 <0>         0.5037
      6 N2         -1.1817    2.0109    0.0187 N.ar      1 <0>        -0.4832
      7 N3          0.0021   -0.0041    0.0020 N.pl3     1 <0>        -0.4760
      8 C5          0.7857   -0.5259    1.1290 C.3       1 <0>         0.0631
      9 C6          0.6646   -2.0509    1.1734 C.3       1 <0>        -0.1143
     10 C7          1.1780   -2.6374   -0.1445 C.3       1 <0>        -0.1174
     11 C8          0.3775   -2.0411   -1.3056 C.3       1 <0>        -0.0836
     12 H1         -0.6715   -2.3198   -1.2054 H         1 <0>         0.0918
     13 C9          0.5069   -0.5165   -1.2782 C.3       1 <0>         0.0772
     14 C10         0.9238   -2.5764   -2.6307 C.3       1 <0>         0.0809
     15 O1          0.1047   -2.1124   -3.7058 O.3       1 <0>        -0.5729
     16 Br1        -0.0787    5.9482    0.0341 Br        1 <0>        -0.0081
     17 H2         -2.1881    3.8410    0.0436 H         1 <0>         0.1830
     18 H3          2.0871    3.8992    0.0027 H         1 <0>         0.1782
     19 H4          1.8322   -0.2482    1.0032 H         1 <0>         0.0558
     20 H5          0.4076   -0.1043    2.0603 H         1 <0>         0.0756
     21 H6          1.2589   -2.4392    2.0005 H         1 <0>         0.0782
     22 H7         -0.3800   -2.3291    1.3131 H         1 <0>         0.0771
     23 H8          2.2332   -2.3923   -0.2657 H         1 <0>         0.0655
     24 H9          1.0535   -3.7202   -0.1343 H         1 <0>         0.0730
     25 H10        -0.0736   -0.0880   -2.0952 H         1 <0>         0.0835
     26 H11         1.5547   -0.2388   -1.3927 H         1 <0>         0.0498
     27 H12         1.9447   -2.2218   -2.7726 H         1 <0>         0.0462
     28 H13         0.9169   -3.6662   -2.6129 H         1 <0>         0.0527
     29 H14         0.3928   -2.4139   -4.5783 H         1 <0>         0.3814
@<TRIPOS>BOND
     1    1    6 ar
     2    1    2 ar
     3    1   17 1
     4    2    3 ar
     5    2   16 1
     6    3    4 ar
     7    3   18 1
     8    4    5 ar
     9    5    6 ar
    10    5    7 1
    11    7   13 1
    12    7    8 1
    13    8    9 1
    14    8   19 1
    15    8   20 1
    16    9   10 1
    17    9   21 1
    18    9   22 1
    19   10   11 1
    20   10   23 1
    21   10   24 1
    22   11   12 1
    23   11   13 1
    24   11   14 1
    25   13   25 1
    26   13   26 1
    27   14   15 1
    28   14   27 1
    29   14   28 1
    30   15   29 1
@<TRIPOS>MOLECULE
ZINC13111659
   32    34     0     0     0
SMALL
USER_CHARGES

@<TRIPOS>ATOM
      1 C1          0.0011    1.3961    0.2243 C.ar      1 <0>        -0.0866
      2 C2          0.2263    0.2885    1.0239 C.ar      1 <0>        -0.1303
      3 C3          1.4225   -0.3914    0.9454 C.ar      1 <0>        -0.0369
      4 C4          2.4120    0.0413    0.0531 C.ar      1 <0>        -0.1238
      5 C5          2.1755    1.1630   -0.7521 C.ar      1 <0>        -0.0757
      6 C6          0.9734    1.8309   -0.6603 C.ar      1 <0>        -0.1350
      7 C7          3.6886   -0.6756   -0.0371 C.2       1 <0>         0.1266
      8 C8          3.7152   -2.0484    0.0592 C.2       1 <0>        -0.2946
      9 C9          4.9036   -2.9190    0.1680 C.2       1 <0>         0.5751
     10 O1          6.0655   -2.5601    0.1907 O.2       1 <0>        -0.4936
     11 N1          4.4537   -4.1862    0.2375 N.am      1 <0>        -0.5192
     12 N2          3.0605   -4.2168    0.1829 N.am      1 <0>        -0.3553
     13 C10         2.5618   -2.9702    0.0827 C.2       1 <0>         0.5652
     14 O2          1.3866   -2.6624    0.0200 O.2       1 <0>        -0.4732
     15 C11         2.2878   -5.3813    0.2318 C.ar      1 <0>         0.1595
     16 C12         0.9028   -5.3010    0.1636 C.ar      1 <0>        -0.1459
     17 C13         0.1426   -6.4530    0.2123 C.ar      1 <0>        -0.0850
     18 C14         0.7588   -7.6855    0.3287 C.ar      1 <0>        -0.1376
     19 C15         2.1374   -7.7689    0.3969 C.ar      1 <0>        -0.0868
     20 C16         2.9038   -6.6212    0.3430 C.ar      1 <0>        -0.1569
     21 H1         -0.9404    1.9215    0.2878 H         1 <0>         0.1264
     22 H2         -0.5376   -0.0434    1.7115 H         1 <0>         0.1275
     23 H3          1.5967   -1.2550    1.5701 H         1 <0>         0.1258
     24 H4          2.9330    1.5037   -1.4424 H         1 <0>         0.1303
     25 H5          0.7892    2.6956   -1.2805 H         1 <0>         0.1288
     26 H6          4.6076   -0.1263   -0.1792 H         1 <0>         0.1590
     27 H7          5.0204   -4.9696    0.3147 H         1 <0>         0.4386
     28 H8          0.4210   -4.3387    0.0730 H         1 <0>         0.1580
     29 H9         -0.9343   -6.3912    0.1596 H         1 <0>         0.1333
     30 H10         0.1620   -8.5848    0.3669 H         1 <0>         0.1284
     31 H11         2.6156   -8.7330    0.4881 H         1 <0>         0.1314
     32 H12         3.9806   -6.6875    0.3914 H         1 <0>         0.1228
@<TRIPOS>BOND
     1    1    6 ar
     2    1    2 ar
     3    1   21 1
     4    2    3 ar
     5    2   22 1
     6    3    4 ar
     7    3   23 1
     8    4    5 ar
     9    4    7 1
    10    5    6 ar
    11    5   24 1
    12    6   25 1
    13    7    8 2
    14    7   26 1
    15    8   13 1
    16    8    9 1
    17    9   10 2
    18    9   11 am
    19   11   12 1
    20   11   27 1
    21   12   13 am
    22   12   15 1
    23   13   14 2
    24   15   20 ar
    25   15   16 ar
    26   16   17 ar
    27   16   28 1
    28   17   18 ar
    29   17   29 1
    30   18   19 ar
    31   18   30 1
    32   19   20 ar
    33   19   31 1
    34   20   32 1
@<TRIPOS>MOLECULE
ZINC04909074
   36    38     0     0     0
SMALL
USER_CHARGES

@<TRIPOS>ATOM
      1 C1         -0.0187    1.5258    0.0104 C.3       1 <0>        -0.1472
      2 C2          0.0021   -0.0041    0.0020 C.3       1 <0>        -0.0886
      3 C3          0.7309   -0.5033    1.2229 C.ar      1 <0>        -0.0731
      4 C4          2.0970   -0.7095    1.1762 C.ar      1 <0>        -0.1155
      5 C5          2.7656   -1.1675    2.2961 C.ar      1 <0>        -0.0991
      6 C6          2.0682   -1.4187    3.4629 C.ar      1 <0>        -0.0994
      7 C7          0.7022   -1.2116    3.5099 C.ar      1 <0>        -0.0928
      8 C8          0.0343   -0.7496    2.3912 C.ar      1 <0>        -0.1160
      9 C9          2.7969   -1.9189    4.6834 C.3       1 <0>         0.2512
     10 H1          3.8588   -1.6845    4.6082 H         1 <0>         0.1110
     11 C10         2.6035   -3.4035    4.8297 C.2       1 <0>        -0.1824
     12 C11         2.7811   -4.6673    4.2820 C.2       1 <0>         0.0769
     13 N1          2.2828   -5.5401    5.1235 N.2       1 <0>        -0.2576
     14 N2          1.8017   -4.9528    6.1612 N.pl3     1 <0>        -0.3375
     15 H2          1.3831   -5.4005    6.9131 H         1 <0>         0.4516
     16 C12         1.9697   -3.6034    6.0436 C.2       1 <0>        -0.0631
     17 C13         1.7517   -2.2985    6.6763 C.2       1 <0>         0.5968
     18 O1          1.2159   -2.1310    7.7553 O.2       1 <0>        -0.5199
     19 N3          2.2300   -1.3119    5.8946 N.am      1 <0>        -0.6003
     20 C14         2.1919    0.1207    6.1990 C.3       1 <0>         0.1085
     21 C15         3.4295   -4.9792    2.9578 C.3       1 <0>        -0.0733
     22 H3          1.0039    1.9031    0.0027 H         1 <0>         0.0563
     23 H4         -0.5459    1.8868   -0.8726 H         1 <0>         0.0592
     24 H5         -0.5289    1.8773    0.9072 H         1 <0>         0.0555
     25 H6         -1.0205   -0.3814    0.0098 H         1 <0>         0.0721
     26 H7          0.5123   -0.3556   -0.8948 H         1 <0>         0.0735
     27 H8          2.6419   -0.5132    0.2646 H         1 <0>         0.1251
     28 H9          3.8328   -1.3293    2.2593 H         1 <0>         0.1268
     29 H10         0.1573   -1.4082    4.4213 H         1 <0>         0.1151
     30 H11        -1.0323   -0.5842    2.4291 H         1 <0>         0.1218
     31 H12         1.2689    0.5504    5.8096 H         1 <0>         0.0639
     32 H13         2.2321    0.2639    7.2788 H         1 <0>         0.0832
     33 H14         3.0462    0.6136    5.7351 H         1 <0>         0.0814
     34 H15         4.4996   -5.1274    3.1033 H         1 <0>         0.0793
     35 H16         2.9902   -5.8863    2.5428 H         1 <0>         0.0769
     36 H17         3.2679   -4.1495    2.2697 H         1 <0>         0.0798
@<TRIPOS>BOND
     1    1    2 1
     2    1   22 1
     3    1   23 1
     4    1   24 1
     5    2    3 1
     6    2   25 1
     7    2   26 1
     8    3    8 ar
     9    3    4 ar
    10    4    5 ar
    11    4   27 1
    12    5    6 ar
    13    5   28 1
    14    6    7 ar
    15    6    9 1
    16    7    8 ar
    17    7   29 1
    18    8   30 1
    19    9   10 1
    20    9   19 1
    21    9   11 1
    22   11   16 2
    23   11   12 1
    24   12   13 2
    25   12   21 1
    26   13   14 1
    27   14   15 1
    28   14   16 1
    29   16   17 1
    30   17   18 2
    31   17   19 am
    32   19   20 1
    33   20   31 1
    34   20   32 1
    35   20   33 1
    36   21   34 1
    37   21   35 1
    38   21   36 1
@<TRIPOS>MOLECULE
ZINC55203543
   34    36     0     0     0
SMALL
USER_CHARGES

@<TRIPOS>ATOM
      1 C1         -0.1736    1.4964    0.0279 C.3       1 <0>        -0.1206
      2 C2         -0.0723   -0.0071    0.0104 C.ar      1 <0>        -0.1231
      3 C3         -0.1720   -0.7037   -1.1845 C.ar      1 <0>        -0.0749
      4 C4         -0.0730   -2.0861   -1.1526 C.ar      1 <0>        -0.1667
      5 C5          0.1204   -2.7197    0.0606 C.ar      1 <0>         0.0976
      6 N1          0.2102   -2.0248    1.1776 N.ar      1 <0>        -0.4728
      7 C6          0.1267   -0.7086    1.1842 C.ar      1 <0>         0.0976
      8 C7          0.2433    0.0386    2.4877 C.3       1 <0>         0.2051
      9 H1         -0.1362    1.0525    2.3606 H         1 <0>         0.1258
     10 C8          1.6894    0.0925    2.9083 C.ar      1 <0>        -0.1114
     11 C9          2.2723   -1.0032    3.5173 C.ar      1 <0>        -0.0910
     12 C10         3.5978   -0.9571    3.9056 C.ar      1 <0>        -0.1111
     13 C11         4.3470    0.1890    3.6848 C.ar      1 <0>         0.0544
     14 C12         3.7619    1.2896    3.0703 C.ar      1 <0>         0.0506
     15 C13         2.4322    1.2352    2.6794 C.ar      1 <0>        -0.1006
     16 O1          4.4811    2.4214    2.8372 O.3       1 <0>        -0.3068
     17 C14         5.7014    2.5710    3.5709 C.3       1 <0>         0.0203
     18 C15         6.4698    1.2444    3.5013 C.3       1 <0>         0.0196
     19 O2          5.6502    0.2210    4.0764 O.3       1 <0>        -0.3065
     20 O3         -0.5200   -0.6332    3.4917 O.3       1 <0>        -0.5420
     21 H2          0.8270    1.9282    0.0072 H         1 <0>         0.0777
     22 H3         -0.7327    1.8330   -0.8452 H         1 <0>         0.0733
     23 H4         -0.6883    1.8154    0.9342 H         1 <0>         0.0757
     24 H5         -0.3236   -0.1817   -2.1177 H         1 <0>         0.1365
     25 H6         -0.1464   -2.6608   -2.0640 H         1 <0>         0.1369
     26 H7          0.1986   -3.7963    0.0941 H         1 <0>         0.1584
     27 H8          1.6907   -1.8967    3.6903 H         1 <0>         0.1352
     28 H9          4.0506   -1.8142    4.3817 H         1 <0>         0.1376
     29 H10         1.9756    2.0882    2.1994 H         1 <0>         0.1360
     30 H11         6.3010    3.3667    3.1286 H         1 <0>         0.1240
     31 H12         5.4782    2.8125    4.6101 H         1 <0>         0.0793
     32 H13         6.6878    0.9999    2.4617 H         1 <0>         0.0781
     33 H14         7.4004    1.3288    4.0626 H         1 <0>         0.1241
     34 H15        -0.2371   -1.5429    3.6580 H         1 <0>         0.3836
@<TRIPOS>BOND
     1    1    2 1
     2    1   21 1
     3    1   22 1
     4    1   23 1
     5    2    7 ar
     6    2    3 ar
     7    3    4 ar
     8    3   24 1
     9    4    5 ar
    10    4   25 1
    11    5    6 ar
    12    5   26 1
    13    6    7 ar
    14    7    8 1
    15    8    9 1
    16    8   10 1
    17    8   20 1
    18   10   15 ar
    19   10   11 ar
    20   11   12 ar
    21   11   27 1
    22   12   13 ar
    23   12   28 1
    24   13   19 1
    25   13   14 ar
    26   14   15 ar
    27   14   16 1
    28   15   29 1
    29   16   17 1
    30   17   18 1
    31   17   30 1
    32   17   31 1
    33   18   19 1
    34   18   32 1
    35   18   33 1
    36   20   34 1
@<TRIPOS>MOLECULE
ZINC64365387
   37    40     0     0     0
SMALL
USER_CHARGES

@<TRIPOS>ATOM
      1 C1         -0.5770    1.4715    0.0548 C.3       1 <0>         0.0733
      2 N1         -0.3900    0.0187    0.0305 N.pl3     1 <0>        -0.4828
      3 C2         -0.3202   -0.7446   -1.0997 C.2       1 <0>         0.0654
      4 C3         -0.1449   -2.0367   -0.7715 C.2       1 <0>        -0.2101
      5 C4         -0.0988   -2.1055    0.6886 C.ar      1 <0>        -0.0814
      6 C5         -0.2522   -0.7808    1.1447 C.ar      1 <0>         0.0801
      7 C6         -0.2440   -0.5227    2.5068 C.ar      1 <0>        -0.0506
      8 C7         -0.0808   -1.5738    3.4070 C.ar      1 <0>        -0.1270
      9 C8          0.0751   -2.8873    2.9413 C.ar      1 <0>        -0.1159
     10 C9          0.0592   -3.1507    1.6048 C.ar      1 <0>        -0.0748
     11 C10        -0.0715   -1.3034    4.8572 C.2       1 <0>         0.5685
     12 O1         -0.2061   -0.1656    5.2643 O.2       1 <0>        -0.5159
     13 N2          0.0861   -2.3175    5.7308 N.am      1 <0>        -0.6759
     14 C11         0.1995   -2.0530    7.0864 C.2       1 <0>         0.1788
     15 C12        -0.6815   -2.6363    7.9868 C.2       1 <0>        -0.1338
     16 C13        -0.5063   -2.2519    9.3210 C.2       1 <0>        -0.0741
     17 C14        -0.7192   -2.8857   10.4918 C.2       1 <0>        -0.1792
     18 C15        -0.1125   -2.1578   11.5335 C.2       1 <0>         0.1381
     19 N3          0.4019   -1.0338   11.1147 N.2       1 <0>        -0.4723
     20 C16         0.0701   -0.8988    9.7035 C.3       1 <0>         0.0567
     21 H1         -0.6876   -0.1258    9.5752 H         1 <0>         0.1485
     22 C17         1.2335   -0.6230    8.8000 C.2       1 <0>        -0.0854
     23 C18         1.2543   -1.1606    7.5769 C.2       1 <0>        -0.1270
     24 H2          0.3953    1.9635    0.0295 H         1 <0>         0.0733
     25 H3         -1.1616    1.7772   -0.8128 H         1 <0>         0.0870
     26 H4         -1.1038    1.7548    0.9660 H         1 <0>         0.0835
     27 H5         -0.3954   -0.3663   -2.1085 H         1 <0>         0.1732
     28 H6         -0.0555   -2.8668   -1.4566 H         1 <0>         0.1520
     29 H7         -0.3632    0.4880    2.8684 H         1 <0>         0.1339
     30 H8          0.2017   -3.6955    3.6464 H         1 <0>         0.1257
     31 H9          0.1811   -4.1643    1.2524 H         1 <0>         0.1313
     32 H10         0.1202   -3.2326    5.4107 H         1 <0>         0.4121
     33 H11        -1.4460   -3.3348    7.6802 H         1 <0>         0.1440
     34 H12        -1.2695   -3.8072   10.6120 H         1 <0>         0.1458
     35 H13        -0.0773   -2.4909   12.5602 H         1 <0>         0.1726
     36 H14         2.0490    0.0006    9.1353 H         1 <0>         0.1371
     37 H15         2.0792   -0.9251    6.9207 H         1 <0>         0.1252
@<TRIPOS>BOND
     1    1    2 1
     2    1   24 1
     3    1   25 1
     4    1   26 1
     5    2    6 1
     6    2    3 1
     7    3    4 2
     8    3   27 1
     9    4    5 1
    10    4   28 1
    11    5   10 ar
    12    5    6 ar
    13    6    7 ar
    14    7    8 ar
    15    7   29 1
    16    8    9 ar
    17    8   11 1
    18    9   10 ar
    19    9   30 1
    20   10   31 1
    21   11   12 2
    22   11   13 am
    23   13   14 1
    24   13   32 1
    25   14   23 1
    26   14   15 2
    27   15   16 1
    28   15   33 1
    29   16   20 1
    30   16   17 2
    31   17   18 1
    32   17   34 1
    33   18   19 2
    34   18   35 1
    35   19   20 1
    36   20   21 1
    37   20   22 1
    38   22   23 2
    39   22   36 1
    40   23   37 1
@<TRIPOS>MOLECULE
ZINC03453499
   38    40     0     0     0
SMALL
USER_CHARGES
N-[2-(2-fluorophenoxy)ethyl]-7,8-dimethyl-9-thia-2,4-diazabicyclo[4.3.0]nona-1,3,5,7-tetraen-5-amine
@<TRIPOS>ATOM
      1 C1         -4.2377   -0.5180    0.2058 C.3       1 <0>        -0.1121
      2 C2         -4.9340   -0.0506    1.4579 C.2       1 <0>        -0.0898
      3 C3         -6.1863   -0.4484    1.7265 C.2       1 <0>        -0.1441
      4 S1         -6.5544    0.3523    3.2764 S.3       1 <0>         0.1037
      5 C4         -5.0162    1.1996    3.5216 C.ar      1 <0>         0.1498
      6 C5         -4.2585    0.8402    2.3852 C.ar      1 <0>        -0.2439
      7 C6         -2.9477    1.3884    2.3285 C.ar      1 <0>         0.4886
      8 N1         -2.5377    2.1824    3.3045 N.ar      1 <0>        -0.5884
      9 C7         -3.3047    2.4811    4.3375 C.ar      1 <0>         0.3645
     10 N2         -4.5273    1.9988    4.4490 N.ar      1 <0>        -0.5237
     11 N3         -2.1136    1.1000    1.2634 N.pl3     1 <0>        -0.7053
     12 C8         -0.7227    1.5598    1.2769 C.3       1 <0>         0.1272
     13 C9         -0.0247    1.1111   -0.0086 C.3       1 <0>         0.0421
     14 O1         -0.6270    1.7614   -1.1295 O.3       1 <0>        -0.3060
     15 C10        -0.1205    1.4705   -2.3572 C.ar      1 <0>         0.0945
     16 C11         0.9375    0.5827   -2.4797 C.ar      1 <0>        -0.1828
     17 C12         1.4479    0.2852   -3.7288 C.ar      1 <0>        -0.0886
     18 C13         0.9118    0.8793   -4.8563 C.ar      1 <0>        -0.1261
     19 C14        -0.1400    1.7688   -4.7384 C.ar      1 <0>        -0.1156
     20 C15        -0.6582    2.0667   -3.4909 C.ar      1 <0>         0.0698
     21 F1         -1.6854    2.9365   -3.3751 F         1 <0>        -0.1312
     22 C16        -7.0716   -1.3564    0.9123 C.3       1 <0>        -0.0695
     23 H1         -4.3165    0.2512   -0.5624 H         1 <0>         0.0778
     24 H2         -3.1867   -0.7076    0.4237 H         1 <0>         0.0652
     25 H3         -4.7064   -1.4357   -0.1496 H         1 <0>         0.0811
     26 H4         -2.9223    3.1342    5.1079 H         1 <0>         0.2084
     27 H5         -2.4496    0.5932    0.5076 H         1 <0>         0.4165
     28 H6         -0.2075    1.1337    2.1378 H         1 <0>         0.0950
     29 H7         -0.7002    2.6476    1.3418 H         1 <0>         0.0867
     30 H8         -0.1244    0.0312   -0.1183 H         1 <0>         0.0725
     31 H9          1.0316    1.3754    0.0403 H         1 <0>         0.0880
     32 H10         1.3599    0.1210   -1.5994 H         1 <0>         0.1378
     33 H11         2.2695   -0.4093   -3.8242 H         1 <0>         0.1342
     34 H12         1.3157    0.6483   -5.8310 H         1 <0>         0.1366
     35 H13        -0.5571    2.2315   -5.6206 H         1 <0>         0.1438
     36 H14        -8.0310   -1.4753    1.4156 H         1 <0>         0.0768
     37 H15        -7.2303   -0.9203   -0.0740 H         1 <0>         0.0831
     38 H16        -6.5937   -2.3303    0.8063 H         1 <0>         0.0831
@<TRIPOS>BOND
     1    1    2 1
     2    1   23 1
     3    1   24 1
     4    1   25 1
     5    2    6 1
     6    2    3 2
     7    3    4 1
     8    3   22 1
     9    4    5 1
    10    5   10 ar
    11    5    6 ar
    12    6    7 ar
    13    7    8 ar
    14    7   11 1
    15    8    9 ar
    16    9   10 ar
    17    9   26 1
    18   11   12 1
    19   11   27 1
    20   12   13 1
    21   12   28 1
    22   12   29 1
    23   13   14 1
    24   13   30 1
    25   13   31 1
    26   14   15 1
    27   15   20 ar
    28   15   16 ar
    29   16   17 ar
    30   16   32 1
    31   17   18 ar
    32   17   33 1
    33   18   19 ar
    34   18   34 1
    35   19   20 ar
    36   19   35 1
    37   20   21 1
    38   22   36 1
    39   22   37 1
    40   22   38 1
@<TRIPOS>MOLECULE
ZINC25148231
   40    42     0     0     0
SMALL
USER_CHARGES
(2R)-N-[[5-(1,3-benzothiazol-2-yl)-2-furyl]methyl]-2-methyl-butanamide
@<TRIPOS>ATOM
      1 C1         -0.0127    1.0858    0.0080 C.3       1 <0>        -0.1564
      2 C2         -0.7288    1.5792    1.2668 C.3       1 <0>        -0.1071
      3 C3          0.0111    1.0724    2.5063 C.3       1 <0>        -0.1088
      4 H1          0.0963   -0.0237    2.4687 H         1 <0>         0.0987
      5 C4          1.4049    1.7011    2.5609 C.3       1 <0>        -0.1476
      6 C5         -0.7607    1.4538    3.7432 C.2       1 <0>         0.5202
      7 O1         -1.8003    2.0704    3.6431 O.2       1 <0>        -0.5382
      8 N1         -0.2958    1.1099    4.9605 N.am      1 <0>        -0.7422
      9 C6         -1.0461    1.4807    6.1629 C.3       1 <0>         0.2006
     10 C7         -0.3173    0.9815    7.3838 C.2       1 <0>        -0.0004
     11 C8          0.6176    1.6653    8.0755 C.2       1 <0>        -0.1833
     12 C9          1.0358    0.8383    9.1338 C.2       1 <0>        -0.1212
     13 C10         0.3253   -0.3205    9.0304 C.2       1 <0>         0.0486
     14 O2         -0.4950   -0.2143    7.9659 O.3       1 <0>        -0.1555
     15 C11         0.4309   -1.4810    9.9267 C.2       1 <0>         0.2208
     16 N2          1.2090   -1.6461   10.9777 N.2       1 <0>        -0.4806
     17 C12         1.1974   -2.7727   11.7157 C.ar      1 <0>         0.0764
     18 C13         1.9726   -3.0754   12.8610 C.ar      1 <0>        -0.0539
     19 C14         1.8436   -4.2722   13.4934 C.ar      1 <0>        -0.1113
     20 C15         0.9551   -5.2404   13.0470 C.ar      1 <0>        -0.0856
     21 C16         0.1791   -4.9853   11.9312 C.ar      1 <0>        -0.0691
     22 C17         0.3011   -3.7798   11.2853 C.ar      1 <0>        -0.1401
     23 S1         -0.4574   -3.0308    9.8642 S.3       1 <0>         0.0238
     24 H2         -0.5447    1.4502   -0.8831 H         1 <0>         0.0587
     25 H3          0.0022   -0.0141    0.0020 H         1 <0>         0.0548
     26 H4          1.0193    1.4665    0.0002 H         1 <0>         0.0580
     27 H5         -0.7437    2.6791    1.2728 H         1 <0>         0.0696
     28 H6         -1.7608    1.1985    1.2746 H         1 <0>         0.0709
     29 H7          1.9368    1.3367    3.4521 H         1 <0>         0.0595
     30 H8          1.3115    2.7960    2.6117 H         1 <0>         0.0625
     31 H9          1.9683    1.4226    1.6581 H         1 <0>         0.0728
     32 H10         0.6471    0.5507    5.0512 H         1 <0>         0.4260
     33 H11        -1.1394    2.5756    6.2137 H         1 <0>         0.1060
     34 H12        -2.0482    1.0287    6.1237 H         1 <0>         0.0888
     35 H13         0.9768    2.6603    7.8580 H         1 <0>         0.1640
     36 H14         1.7767    1.0754    9.8830 H         1 <0>         0.1660
     37 H15         2.6747   -2.3462   13.2376 H         1 <0>         0.1363
     38 H16         2.4481   -4.4746   14.3651 H         1 <0>         0.1381
     39 H17         0.8708   -6.1840   13.5657 H         1 <0>         0.1426
     40 H18        -0.5174   -5.7280   11.5710 H         1 <0>         0.1374
@<TRIPOS>BOND
     1    1    2 1
     2    1   24 1
     3    1   25 1
     4    1   26 1
     5    2    3 1
     6    2   27 1
     7    2   28 1
     8    3    4 1
     9    3    5 1
    10    3    6 1
    11    5   29 1
    12    5   30 1
    13    5   31 1
    14    6    7 2
    15    6    8 am
    16    8    9 1
    17    8   32 1
    18    9   10 1
    19    9   33 1
    20    9   34 1
    21   10   14 1
    22   10   11 2
    23   11   12 1
    24   11   35 1
    25   12   13 2
    26   12   36 1
    27   13   14 1
    28   13   15 1
    29   15   23 1
    30   15   16 2
    31   16   17 1
    32   17   22 ar
    33   17   18 ar
    34   18   19 ar
    35   18   37 1
    36   19   20 ar
    37   19   38 1
    38   20   21 ar
    39   20   39 1
    40   21   22 ar
    41   21   40 1
    42   22   23 1
@<TRIPOS>MOLECULE
ZINC00504168
   36    38     0     0     0
SMALL
USER_CHARGES

@<TRIPOS>ATOM
      1 C1         -0.0167    1.3782    0.0096 C.ar      1 <0>        -0.1403
      2 C2          1.1700    2.0882    0.0021 C.ar      1 <0>        -0.0774
      3 C3          2.3773    1.4175   -0.0134 C.ar      1 <0>        -0.1886
      4 C4          2.3989    0.0301   -0.0210 C.ar      1 <0>         0.1130
      5 C5          1.2072   -0.6797   -0.0130 C.ar      1 <0>        -0.1139
      6 C6          0.0021   -0.0041    0.0020 C.ar      1 <0>        -0.0740
      7 C7          1.2269   -2.1866   -0.0218 C.3       1 <0>        -0.0600
      8 C8          1.3738   -2.7030    1.4109 C.3       1 <0>         0.0994
      9 H1          0.5827   -2.2823    2.0317 H         1 <0>         0.1510
     10 C9          2.6844   -2.2995    1.9460 C.1       1 <0>         0.1979
     11 N1          3.6958   -1.9881    2.3589 N.1       1 <0>        -0.3934
     12 C10         1.2704   -4.2064    1.4161 C.2       1 <0>         0.2842
     13 N2          2.3050   -5.0595    1.1875 N.pl3     1 <0>        -0.5926
     14 H2          3.2231   -4.8116    0.9961 H         1 <0>         0.4228
     15 C11         1.8063   -6.3436    1.2787 C.ar      1 <0>         0.0539
     16 C12         2.3629   -7.6086    1.1468 C.ar      1 <0>        -0.1133
     17 C13         1.5679   -8.7240    1.3026 C.ar      1 <0>        -0.0948
     18 C14         0.2167   -8.5901    1.5898 C.ar      1 <0>        -0.1263
     19 C15        -0.3481   -7.3534    1.7231 C.ar      1 <0>        -0.0595
     20 C16         0.4384   -6.2086    1.5699 C.ar      1 <0>         0.0464
     21 N3          0.1797   -4.8777    1.6453 N.2       1 <0>        -0.4694
     22 O1          3.5855   -0.6321   -0.0368 O.3       1 <0>        -0.3196
     23 C17         4.7724    0.1636   -0.0448 C.3       1 <0>         0.4142
     24 F1          4.7809    0.9771   -1.1829 F         1 <0>        -0.1972
     25 F2          4.8044    0.9650    1.1015 F         1 <0>        -0.1932
     26 H3         -0.9596    1.9045    0.0259 H         1 <0>         0.1313
     27 H4          1.1527    3.1681    0.0080 H         1 <0>         0.1302
     28 H5          3.3038    1.9724   -0.0200 H         1 <0>         0.1335
     29 H6         -0.9260   -0.5563    0.0079 H         1 <0>         0.1403
     30 H7          0.2960   -2.5596   -0.4488 H         1 <0>         0.1078
     31 H8          2.0674   -2.5355   -0.6217 H         1 <0>         0.0879
     32 H9          3.4137   -7.7184    0.9227 H         1 <0>         0.1244
     33 H10         1.9994   -9.7087    1.2003 H         1 <0>         0.1325
     34 H11        -0.3945   -9.4725    1.7086 H         1 <0>         0.1322
     35 H12        -1.4007   -7.2607    1.9463 H         1 <0>         0.1326
     36 H13         5.6464   -0.4877   -0.0572 H         1 <0>         0.1777
@<TRIPOS>BOND
     1    1    6 ar
     2    1    2 ar
     3    1   26 1
     4    2    3 ar
     5    2   27 1
     6    3    4 ar
     7    3   28 1
     8    4    5 ar
     9    4   22 1
    10    5    6 ar
    11    5    7 1
    12    6   29 1
    13    7    8 1
    14    7   30 1
    15    7   31 1
    16    8    9 1
    17    8   10 1
    18    8   12 1
    19   10   11 3
    20   12   21 2
    21   12   13 1
    22   13   14 1
    23   13   15 1
    24   15   20 ar
    25   15   16 ar
    26   16   17 ar
    27   16   32 1
    28   17   18 ar
    29   17   33 1
    30   18   19 ar
    31   18   34 1
    32   19   20 ar
    33   19   35 1
    34   20   21 1
    35   22   23 1
    36   23   24 1
    37   23   25 1
    38   23   36 1
@<TRIPOS>MOLECULE
ZINC49923397
   44    46     0     0     0
SMALL
USER_CHARGES

@<TRIPOS>ATOM
      1 C1         -0.7505    1.2320   -0.9619 C.3       1 <0>        -0.1198
      2 C2         -0.3516   -0.1324   -0.4614 C.ar      1 <0>        -0.0599
      3 C3          0.9527   -0.3644   -0.0607 C.ar      1 <0>        -0.1277
      4 C4          1.3256   -1.6101    0.3980 C.ar      1 <0>        -0.0443
      5 C5          0.3817   -2.6404    0.4582 C.ar      1 <0>        -0.1655
      6 C6         -0.9343   -2.3978    0.0519 C.ar      1 <0>        -0.0428
      7 C7         -1.2928   -1.1452   -0.3995 C.ar      1 <0>        -0.1277
      8 C8         -1.9591   -3.5011    0.1122 C.3       1 <0>        -0.1268
      9 C9          0.7715   -3.9730    0.9461 C.2       1 <0>         0.4186
     10 O1          1.0896   -4.8380    0.1581 O.2       1 <0>        -0.4362
     11 C10         0.7752   -4.2626    2.4250 C.3       1 <0>        -0.1795
     12 C11         1.0900   -5.7422    2.6542 C.3       1 <0>         0.1331
     13 N1          1.0936   -6.0238    4.0918 N.pl3     1 <0>        -0.7447
     14 C12         1.3588   -7.3188    4.5505 C.ar      1 <0>         0.2288
     15 C13         1.6242   -8.3361    3.6432 C.ar      1 <0>        -0.1884
     16 C14         1.8863   -9.6155    4.0949 C.ar      1 <0>        -0.0487
     17 C15         1.8855   -9.8871    5.4534 C.ar      1 <0>        -0.0296
     18 C16         1.6201   -8.8690    6.3658 C.ar      1 <0>         0.0814
     19 C17         1.3623   -7.5857    5.9127 C.ar      1 <0>        -0.1775
     20 O2          1.6777   -9.3875    7.6273 O.3       1 <0>        -0.3106
     21 C18         1.5767  -10.8142    7.4620 C.3       1 <0>         0.2145
     22 O3          2.1095  -11.0444    6.1443 O.3       1 <0>        -0.3111
     23 C19         2.7465   -1.8609    0.8329 C.3       1 <0>        -0.1258
     24 H1         -1.0866    1.8425   -0.1238 H         1 <0>         0.0750
     25 H2          0.1061    1.7089   -1.4383 H         1 <0>         0.0696
     26 H3         -1.5593    1.1313   -1.6855 H         1 <0>         0.0695
     27 H4          1.6804    0.4322   -0.1078 H         1 <0>         0.1284
     28 H5         -2.3098   -0.9551   -0.7095 H         1 <0>         0.1284
     29 H6         -2.3825   -3.5493    1.1155 H         1 <0>         0.0766
     30 H7         -2.7525   -3.2998   -0.6076 H         1 <0>         0.0756
     31 H8         -1.4837   -4.4521   -0.1276 H         1 <0>         0.0693
     32 H9          1.5330   -3.6500    2.9133 H         1 <0>         0.1096
     33 H10        -0.2043   -4.0306    2.8431 H         1 <0>         0.1075
     34 H11         0.3322   -6.3548    2.1658 H         1 <0>         0.0690
     35 H12         2.0696   -5.9742    2.2360 H         1 <0>         0.0712
     36 H13         0.9122   -5.3124    4.7258 H         1 <0>         0.4016
     37 H14         1.6255   -8.1272    2.5836 H         1 <0>         0.1369
     38 H15         2.0918  -10.4053    3.3875 H         1 <0>         0.1354
     39 H16         1.1603   -6.7939    6.6188 H         1 <0>         0.1331
     40 H17         2.1753  -11.3301    8.2127 H         1 <0>         0.1301
     41 H18         0.5358  -11.1332    7.5153 H         1 <0>         0.0826
     42 H19         2.8241   -1.7324    1.9125 H         1 <0>         0.0774
     43 H20         3.0338   -2.8781    0.5665 H         1 <0>         0.0673
     44 H21         3.4093   -1.1537    0.3343 H         1 <0>         0.0760
@<TRIPOS>BOND
     1    1    2 1
     2    1   24 1
     3    1   25 1
     4    1   26 1
     5    2    7 ar
     6    2    3 ar
     7    3    4 ar
     8    3   27 1
     9    4    5 ar
    10    4   23 1
    11    5    6 ar
    12    5    9 1
    13    6    7 ar
    14    6    8 1
    15    7   28 1
    16    8   29 1
    17    8   30 1
    18    8   31 1
    19    9   10 2
    20    9   11 1
    21   11   12 1
    22   11   32 1
    23   11   33 1
    24   12   13 1
    25   12   34 1
    26   12   35 1
    27   13   14 1
    28   13   36 1
    29   14   19 ar
    30   14   15 ar
    31   15   16 ar
    32   15   37 1
    33   16   17 ar
    34   16   38 1
    35   17   22 1
    36   17   18 ar
    37   18   19 ar
    38   18   20 1
    39   19   39 1
    40   20   21 1
    41   21   22 1
    42   21   40 1
    43   21   41 1
    44   23   42 1
    45   23   43 1
    46   23   44 1
@<TRIPOS>MOLECULE
ZINC07115562
   43    45     0     0     0
SMALL
USER_CHARGES

@<TRIPOS>ATOM
      1 C1         -0.0187    1.5258    0.0104 C.3       1 <0>        -0.1645
      2 C2          0.0021   -0.0041    0.0020 C.3       1 <0>         0.2271
      3 H1          0.5293   -0.3651    0.8851 H         1 <0>         0.1188
      4 C3         -1.4117   -0.5257    0.0127 C.2       1 <0>         0.0209
      5 C4         -2.0568   -0.9710    1.0994 C.2       1 <0>        -0.1864
      6 C5         -3.3931   -1.3745    0.6454 C.ar      1 <0>        -0.1313
      7 C6         -4.5167   -1.9082    1.2748 C.ar      1 <0>        -0.0691
      8 C7         -5.6388   -2.1801    0.5423 C.ar      1 <0>        -0.1342
      9 C8         -5.6653   -1.9285   -0.8219 C.ar      1 <0>        -0.0905
     10 C9         -4.5639   -1.4010   -1.4615 C.ar      1 <0>        -0.1073
     11 C10        -3.4137   -1.1171   -0.7356 C.ar      1 <0>         0.0548
     12 O1         -2.2106   -0.6062   -1.0657 O.3       1 <0>        -0.1908
     13 N1          0.6878   -0.4765   -1.2033 N.am      1 <0>        -0.7302
     14 C11         2.0310   -0.5870   -1.2149 C.2       1 <0>         0.4909
     15 O2          2.6720   -0.2952   -0.2276 O.2       1 <0>        -0.5181
     16 C12         2.7363   -1.0730   -2.4548 C.3       1 <0>         0.1065
     17 N2          4.1811   -1.1040   -2.2143 N.pl3     1 <0>        -0.6137
     18 C13         4.8088   -2.3148   -1.6793 C.3       1 <0>         0.0968
     19 C14         4.9601    0.0208   -2.4949 C.ar      1 <0>         0.2197
     20 C15         4.3657    1.1717   -2.9968 C.ar      1 <0>        -0.1954
     21 C16         5.1389    2.2823   -3.2727 C.ar      1 <0>        -0.0729
     22 C17         6.5033    2.2494   -3.0505 C.ar      1 <0>        -0.1772
     23 C18         7.0983    1.1053   -2.5509 C.ar      1 <0>        -0.0729
     24 C19         6.3302   -0.0069   -2.2674 C.ar      1 <0>        -0.1919
     25 H2          1.0039    1.9031    0.0027 H         1 <0>         0.0752
     26 H3         -0.5459    1.8868   -0.8726 H         1 <0>         0.0645
     27 H4         -0.5289    1.8773    0.9072 H         1 <0>         0.0736
     28 H5         -1.6712   -1.0228    2.1069 H         1 <0>         0.1609
     29 H6         -4.5007   -2.1064    2.3363 H         1 <0>         0.1289
     30 H7         -6.5100   -2.5935    1.0286 H         1 <0>         0.1314
     31 H8         -6.5578   -2.1486   -1.3887 H         1 <0>         0.1370
     32 H9         -4.5949   -1.2093   -2.5239 H         1 <0>         0.1332
     33 H10         0.1751   -0.7099   -1.9930 H         1 <0>         0.4062
     34 H11         2.3875   -2.0757   -2.7018 H         1 <0>         0.1075
     35 H12         2.5204   -0.3987   -3.2836 H         1 <0>         0.1082
     36 H13         5.1164   -2.9589   -2.5031 H         1 <0>         0.0519
     37 H14         5.6819   -2.0403   -1.0873 H         1 <0>         0.0716
     38 H15         4.0952   -2.8461   -1.0495 H         1 <0>         0.0647
     39 H16         3.3002    1.1978   -3.1713 H         1 <0>         0.1150
     40 H17         4.6774    3.1773   -3.6629 H         1 <0>         0.1197
     41 H18         7.1057    3.1190   -3.2678 H         1 <0>         0.1180
     42 H19         8.1642    1.0830   -2.3785 H         1 <0>         0.1210
     43 H20         6.7948   -0.8985   -1.8731 H         1 <0>         0.1223
@<TRIPOS>BOND
     1    1    2 1
     2    1   25 1
     3    1   26 1
     4    1   27 1
     5    2    3 1
     6    2    4 1
     7    2   13 1
     8    4   12 1
     9    4    5 2
    10    5    6 1
    11    5   28 1
    12    6   11 ar
    13    6    7 ar
    14    7    8 ar
    15    7   29 1
    16    8    9 ar
    17    8   30 1
    18    9   10 ar
    19    9   31 1
    20   10   11 ar
    21   10   32 1
    22   11   12 1
    23   13   14 am
    24   13   33 1
    25   14   15 2
    26   14   16 1
    27   16   17 1
    28   16   34 1
    29   16   35 1
    30   17   18 1
    31   17   19 1
    32   18   36 1
    33   18   37 1
    34   18   38 1
    35   19   24 ar
    36   19   20 ar
    37   20   21 ar
    38   20   39 1
    39   21   22 ar
    40   21   40 1
    41   22   23 ar
    42   22   41 1
    43   23   24 ar
    44   23   42 1
    45   24   43 1
@<TRIPOS>MOLECULE
ZINC11886426
   42    43     0     0     0
SMALL
USER_CHARGES
(Z)-3-[5-chloro-2-[2-(3,5-dimethylphenoxy)ethoxy]phenyl]prop-2-enoic acid
@<TRIPOS>ATOM
      1 C1         -0.4811   -0.6254    4.8296 C.3       1 <0>        -0.1145
      2 C2         -1.4050    0.4742    4.3731 C.ar      1 <0>        -0.0461
      3 C3         -2.1607    1.1701    5.2985 C.ar      1 <0>        -0.1637
      4 C4         -3.0086    2.1801    4.8830 C.ar      1 <0>        -0.0430
      5 C5         -3.1030    2.4961    3.5415 C.ar      1 <0>        -0.1575
      6 C6         -2.3461    1.7991    2.6109 C.ar      1 <0>         0.1429
      7 C7         -1.5004    0.7822    3.0298 C.ar      1 <0>        -0.2190
      8 O1         -2.4371    2.1081    1.2906 O.3       1 <0>        -0.3016
      9 C8         -1.6287    1.3490    0.3894 C.3       1 <0>         0.0637
     10 C9         -1.8645    1.8366   -1.0415 C.3       1 <0>         0.0601
     11 O2         -1.4068    3.1845   -1.1669 O.3       1 <0>        -0.3007
     12 C10        -1.5440    3.7711   -2.3828 C.ar      1 <0>         0.1308
     13 C11        -2.1017    3.0654   -3.4373 C.ar      1 <0>        -0.2164
     14 C12        -2.2465    3.6648   -4.6731 C.ar      1 <0>        -0.0757
     15 C13        -1.8259    4.9710   -4.8737 C.ar      1 <0>        -0.0817
     16 C14        -1.2636    5.6872   -3.8389 C.ar      1 <0>         0.0322
     17 C15        -1.1163    5.0938   -2.5799 C.ar      1 <0>        -0.0424
     18 C16        -0.5176    5.8499   -1.4719 C.2       1 <0>        -0.0970
     19 C17        -0.8988    7.1255   -1.2407 C.2       1 <0>        -0.1613
     20 C18        -2.0153    7.6669   -1.9261 C.2       1 <0>         0.4661
     21 O3         -2.7073    6.9495   -2.6235 O.co2     1 <0>        -0.6187
     22 Cl1        -2.0088    5.7076   -6.4350 Cl        1 <0>        -0.0894
     23 C19        -3.8301    2.9372    5.8944 C.3       1 <0>        -0.1157
     24 H1         -1.0185   -1.5737    4.8326 H         1 <0>         0.0707
     25 H2          0.3686   -0.6915    4.1501 H         1 <0>         0.0657
     26 H3         -0.1251   -0.4063    5.8363 H         1 <0>         0.0673
     27 H4         -2.0883    0.9246    6.3477 H         1 <0>         0.1207
     28 H5         -3.7651    3.2854    3.2174 H         1 <0>         0.1318
     29 H6         -0.9135    0.2351    2.3068 H         1 <0>         0.1257
     30 H7         -1.8951    0.2945    0.4625 H         1 <0>         0.0814
     31 H8         -0.5777    1.4769    0.6484 H         1 <0>         0.0739
     32 H9         -1.3167    1.2007   -1.7369 H         1 <0>         0.0828
     33 H10        -2.9293    1.7918   -1.2698 H         1 <0>         0.0732
     34 H11        -2.4276    2.0461   -3.2911 H         1 <0>         0.1258
     35 H12        -2.6859    3.1113   -5.4898 H         1 <0>         0.1245
     36 H13        -0.9376    6.7043   -3.9991 H         1 <0>         0.1314
     37 H14         0.2271    5.3863   -0.8420 H         1 <0>         0.1166
     38 H15        -0.3527    7.7325   -0.5338 H         1 <0>         0.1096
     39 H16        -4.7890    2.4374    6.0310 H         1 <0>         0.0724
     40 H17        -3.2977    2.9681    6.8450 H         1 <0>         0.0676
     41 H18        -3.9977    3.9538    5.5386 H         1 <0>         0.0706
     42 O4         -2.3106    8.9779   -1.8049 O.co2     1 <0>        -0.7633
@<TRIPOS>BOND
     1    1    2 1
     2    1   24 1
     3    1   25 1
     4    1   26 1
     5    2    7 ar
     6    2    3 ar
     7    3    4 ar
     8    3   27 1
     9    4    5 ar
    10    4   23 1
    11    5    6 ar
    12    5   28 1
    13    6    7 ar
    14    6    8 1
    15    7   29 1
    16    8    9 1
    17    9   10 1
    18    9   30 1
    19    9   31 1
    20   10   11 1
    21   10   32 1
    22   10   33 1
    23   11   12 1
    24   12   17 ar
    25   12   13 ar
    26   13   14 ar
    27   13   34 1
    28   14   15 ar
    29   14   35 1
    30   15   16 ar
    31   15   22 1
    32   16   17 ar
    33   16   36 1
    34   17   18 1
    35   18   19 2
    36   18   37 1
    37   19   20 1
    38   19   38 1
    39   20   21 2
    40   20   42 1
    41   23   39 1
    42   23   40 1
    43   23   41 1
@<TRIPOS>MOLECULE
ZINC06149638
   54    56     0     0     0
SMALL
USER_CHARGES
(5R)-5-(2-chlorophenyl)-1-hexyl-3-hydroxy-4-(4-methylbenzoyl)-5H-pyrrol-2-one
@<TRIPOS>ATOM
      1 C1          2.7814   -2.2220    7.8897 C.3       1 <0>        -0.1542
      2 C2          3.2905   -1.5039    6.6383 C.3       1 <0>        -0.1254
      3 C3          2.6685   -2.1429    5.3950 C.3       1 <0>        -0.1202
      4 C4          3.1776   -1.4247    4.1437 C.3       1 <0>        -0.1159
      5 C5          2.5556   -2.0637    2.9004 C.3       1 <0>        -0.1378
      6 C6          3.0647   -1.3455    1.6490 C.3       1 <0>         0.1335
      7 N1          2.4692   -1.9573    0.4585 N.am      1 <0>        -0.6131
      8 C7          1.2081   -1.5592   -0.1780 C.3       1 <0>         0.2629
      9 H1          0.3813   -1.6378    0.5433 H         1 <0>         0.0767
     10 C8          1.0233   -2.4813   -1.3604 C.2       1 <0>        -0.4972
     11 C9          2.0892   -3.3156   -1.3755 C.2       1 <0>         0.2629
     12 C10         2.9811   -2.9841   -0.2441 C.2       1 <0>         0.5121
     13 O1          4.0225   -3.5545    0.0131 O.2       1 <0>        -0.5342
     14 O2          2.3040   -4.2967   -2.2817 O.3       1 <0>        -0.6530
     15 C11        -0.0946   -2.4738   -2.3086 C.2       1 <0>         0.5068
     16 O3          0.0964   -2.1729   -3.4719 O.2       1 <0>        -0.4762
     17 C12        -1.4543   -2.8321   -1.8512 C.ar      1 <0>        -0.1315
     18 C13        -1.6573   -3.2938   -0.5490 C.ar      1 <0>        -0.0560
     19 C14        -2.9290   -3.6216   -0.1274 C.ar      1 <0>        -0.1401
     20 C15        -4.0009   -3.5034   -0.9947 C.ar      1 <0>        -0.0777
     21 C16        -3.8060   -3.0514   -2.2882 C.ar      1 <0>        -0.1378
     22 C17        -2.5404   -2.7156   -2.7213 C.ar      1 <0>        -0.0718
     23 C18        -5.3867   -3.8689   -0.5287 C.3       1 <0>        -0.1140
     24 C19         1.2923   -0.1287   -0.6446 C.ar      1 <0>        -0.0618
     25 C20         2.5169    0.4182   -0.9796 C.ar      1 <0>        -0.0917
     26 C21         2.5944    1.7305   -1.4067 C.ar      1 <0>        -0.1161
     27 C22         1.4473    2.4966   -1.5001 C.ar      1 <0>        -0.1207
     28 C23         0.2225    1.9510   -1.1655 C.ar      1 <0>        -0.1126
     29 C24         0.1443    0.6374   -0.7373 C.ar      1 <0>        -0.0330
     30 Cl1        -1.3938   -0.0485   -0.3163 Cl        1 <0>        -0.0640
     31 H2          3.2286   -1.7626    8.7835 H         1 <0>         0.0510
     32 H3          3.0635   -3.2842    7.8432 H         1 <0>         0.0535
     33 H4          1.6861   -2.1355    7.9420 H         1 <0>         0.0531
     34 H5          3.0084   -0.4417    6.6848 H         1 <0>         0.0598
     35 H6          4.3858   -1.5904    6.5860 H         1 <0>         0.0603
     36 H7          2.9507   -3.2051    5.3485 H         1 <0>         0.0619
     37 H8          1.5731   -2.0565    5.4473 H         1 <0>         0.0612
     38 H9          2.8954   -0.3625    4.1902 H         1 <0>         0.0615
     39 H10         4.2730   -1.5111    4.0914 H         1 <0>         0.0626
     40 H11         2.8378   -3.1259    2.8539 H         1 <0>         0.0678
     41 H12         1.4602   -1.9773    2.9527 H         1 <0>         0.0650
     42 H13         2.7825   -0.2833    1.6955 H         1 <0>         0.0738
     43 H14         4.1601   -1.4319    1.5967 H         1 <0>         0.0781
     44 H15        -0.8210   -3.3908    0.1275 H         1 <0>         0.1303
     45 H16        -3.0881   -3.9749    0.8807 H         1 <0>         0.1188
     46 H17        -4.6469   -2.9619   -2.9600 H         1 <0>         0.1183
     47 H18        -2.3896   -2.3637   -3.7312 H         1 <0>         0.1262
     48 H19        -6.1027   -3.7113   -1.3487 H         1 <0>         0.0621
     49 H20        -5.6645   -3.2363    0.3272 H         1 <0>         0.0663
     50 H21        -5.4044   -4.9258   -0.2245 H         1 <0>         0.0674
     51 H22         3.4133   -0.1798   -0.9072 H         1 <0>         0.1261
     52 H23         3.5514    2.1574   -1.6684 H         1 <0>         0.1232
     53 H24         1.5084    3.5218   -1.8342 H         1 <0>         0.1251
     54 H25        -0.6740    2.5483   -1.2423 H         1 <0>         0.1275
@<TRIPOS>BOND
     1    1    2 1
     2    1   31 1
     3    1   32 1
     4    1   33 1
     5    2    3 1
     6    2   34 1
     7    2   35 1
     8    3    4 1
     9    3   36 1
    10    3   37 1
    11    4    5 1
    12    4   38 1
    13    4   39 1
    14    5    6 1
    15    5   40 1
    16    5   41 1
    17    6    7 1
    18    6   42 1
    19    6   43 1
    20    7   12 am
    21    7    8 1
    22    8    9 1
    23    8   10 1
    24    8   24 1
    25   10   11 2
    26   10   15 1
    27   11   12 1
    28   11   14 1
    29   12   13 2
    30   15   16 2
    31   15   17 1
    32   17   22 ar
    33   17   18 ar
    34   18   19 ar
    35   18   44 1
    36   19   20 ar
    37   19   45 1
    38   20   21 ar
    39   20   23 1
    40   21   22 ar
    41   21   46 1
    42   22   47 1
    43   23   48 1
    44   23   49 1
    45   23   50 1
    46   24   29 ar
    47   24   25 ar
    48   25   26 ar
    49   25   51 1
    50   26   27 ar
    51   26   52 1
    52   27   28 ar
    53   27   53 1
    54   28   29 ar
    55   28   54 1
    56   29   30 1
@<TRIPOS>MOLECULE
ZINC38899242
   52    55     0     0     0
SMALL
USER_CHARGES

@<TRIPOS>ATOM
      1 C1         -0.0184    1.5028    0.0103 C.3       1 <0>        -0.1133
      2 C2          0.0021   -0.0041    0.0020 C.2       1 <0>         0.2093
      3 C3         -1.1715   -0.7013    0.0038 C.2       1 <0>        -0.2560
      4 C4         -1.1276   -2.1065   -0.0045 C.2       1 <0>         0.5426
      5 O1         -2.1575   -2.7607   -0.0036 O.2       1 <0>        -0.5296
      6 N1          0.0760   -2.7182   -0.0140 N.am      1 <0>        -0.6136
      7 H1          0.1298   -3.6867   -0.0202 H         1 <0>         0.4216
      8 C5          1.2143   -1.9705   -0.0153 C.2       1 <0>         0.3753
      9 N2          1.1639   -0.6523   -0.0126 N.2       1 <0>        -0.5371
     10 S1          2.7806   -2.7774   -0.0271 S.3       1 <0>        -0.0017
     11 C6          3.9768   -1.4137   -0.0253 C.3       1 <0>        -0.0174
     12 H2          3.7772   -0.7565    0.8211 H         1 <0>         0.1158
     13 C7          3.8487   -0.6212   -1.3277 C.3       1 <0>        -0.1494
     14 C8          5.3727   -1.9700    0.0889 C.ar      1 <0>        -0.0816
     15 C9          5.8553   -2.8301   -0.8797 C.ar      1 <0>        -0.1029
     16 C10         7.1357   -3.3405   -0.7749 C.ar      1 <0>        -0.1170
     17 C11         7.9337   -2.9904    0.2983 C.ar      1 <0>        -0.1096
     18 C12         7.4514   -2.1295    1.2664 C.ar      1 <0>        -0.1176
     19 C13         6.1725   -1.6158    1.1594 C.ar      1 <0>        -0.0974
     20 C14        -2.4928    0.0234    0.0150 C.3       1 <0>        -0.0731
     21 C15        -3.0000    0.1651   -1.3970 C.2       1 <0>         0.5318
     22 O2         -2.3523   -0.2788   -2.3215 O.2       1 <0>        -0.5099
     23 N3         -4.1733    0.7850   -1.6326 N.am      1 <0>        -0.5543
     24 C16        -4.7705    0.9777   -2.9568 C.3       1 <0>         0.1062
     25 C17        -6.0881    1.7271   -2.6997 C.3       1 <0>        -0.0873
     26 C18        -6.1372    1.9070   -1.1991 C.ar      1 <0>        -0.1347
     27 C19        -5.0020    1.3332   -0.6487 C.ar      1 <0>         0.1448
     28 C20        -4.8268    1.3706    0.7357 C.ar      1 <0>        -0.1633
     29 C21        -5.7742    1.9671    1.5405 C.ar      1 <0>        -0.0844
     30 C22        -6.9053    2.5329    0.9820 C.ar      1 <0>        -0.1415
     31 C23        -7.0816    2.5075   -0.3892 C.ar      1 <0>        -0.0720
     32 H3          1.0042    1.8801    0.0026 H         1 <0>         0.0862
     33 H4         -0.5455    1.8639   -0.8728 H         1 <0>         0.0841
     34 H5         -0.5286    1.8543    0.9071 H         1 <0>         0.0887
     35 H6          4.0482   -1.2784   -2.1741 H         1 <0>         0.0655
     36 H7          2.8390   -0.2188   -1.4104 H         1 <0>         0.0830
     37 H8          4.5674    0.1982   -1.3267 H         1 <0>         0.0732
     38 H9          5.2319   -3.1037   -1.7181 H         1 <0>         0.1272
     39 H10         7.5126   -4.0130   -1.5312 H         1 <0>         0.1267
     40 H11         8.9338   -3.3896    0.3805 H         1 <0>         0.1255
     41 H12         8.0746   -1.8563    2.1050 H         1 <0>         0.1271
     42 H13         5.7970   -0.9404    1.9138 H         1 <0>         0.1263
     43 H14        -3.2132   -0.5435    0.6047 H         1 <0>         0.1160
     44 H15        -2.3612    1.0121    0.4546 H         1 <0>         0.1131
     45 H16        -4.1114    1.5766   -3.5853 H         1 <0>         0.0841
     46 H17        -4.9690    0.0141   -3.4260 H         1 <0>         0.0833
     47 H18        -6.0780    2.6961   -3.1987 H         1 <0>         0.0932
     48 H19        -6.9362    1.1324   -3.0392 H         1 <0>         0.0929
     49 H20        -3.9457    0.9301    1.1782 H         1 <0>         0.1349
     50 H21        -5.6324    1.9921    2.6109 H         1 <0>         0.1308
     51 H22        -7.6461    2.9993    1.6146 H         1 <0>         0.1287
     52 H23        -7.9651    2.9481   -0.8271 H         1 <0>         0.1272
@<TRIPOS>BOND
     1    1    2 1
     2    1   32 1
     3    1   33 1
     4    1   34 1
     5    2    9 1
     6    2    3 2
     7    3    4 1
     8    3   20 1
     9    4    5 2
    10    4    6 am
    11    6    7 1
    12    6    8 1
    13    8    9 2
    14    8   10 1
    15   10   11 1
    16   11   12 1
    17   11   13 1
    18   11   14 1
    19   13   35 1
    20   13   36 1
    21   13   37 1
    22   14   19 ar
    23   14   15 ar
    24   15   16 ar
    25   15   38 1
    26   16   17 ar
    27   16   39 1
    28   17   18 ar
    29   17   40 1
    30   18   19 ar
    31   18   41 1
    32   19   42 1
    33   20   21 1
    34   20   43 1
    35   20   44 1
    36   21   22 2
    37   21   23 am
    38   23   27 1
    39   23   24 1
    40   24   25 1
    41   24   45 1
    42   24   46 1
    43   25   26 1
    44   25   47 1
    45   25   48 1
    46   26   31 ar
    47   26   27 ar
    48   27   28 ar
    49   28   29 ar
    50   28   49 1
    51   29   30 ar
    52   29   50 1
    53   30   31 ar
    54   30   51 1
    55   31   52 1
@<TRIPOS>MOLECULE
ZINC40522422
   50    51     0     0     0
SMALL
USER_CHARGES

@<TRIPOS>ATOM
      1 C1          0.0428    0.7734    1.8406 C.3       1 <0>        -0.1511
      2 C2         -0.0090   -0.7268    1.5444 C.3       1 <0>        -0.1240
      3 C3         -1.4564   -1.1440    1.2763 C.3       1 <0>        -0.1137
      4 C4         -1.5082   -2.6442    0.9801 C.3       1 <0>        -0.1282
      5 C5         -2.9556   -3.0614    0.7119 C.3       1 <0>         0.1064
      6 N1         -3.0051   -4.4978    0.4283 N.am      1 <0>        -0.5246
      7 C6         -2.8732   -4.9282   -0.8482 C.2       1 <0>         0.5250
      8 C7         -2.9148   -6.2914   -1.1616 C.2       1 <0>        -0.4114
      9 C8         -3.0966   -7.2437   -0.1411 C.2       1 <0>         0.1416
     10 C9         -3.2318   -6.8038    1.1705 C.2       1 <0>        -0.3121
     11 C10        -3.1756   -5.3664    1.4426 C.2       1 <0>         0.5703
     12 O1         -3.2870   -4.9568    2.5843 O.2       1 <0>        -0.5638
     13 C11        -3.4184   -7.7405    2.2374 C.1       1 <0>         0.3147
     14 N2         -3.5664   -8.4835    3.0839 N.1       1 <0>        -0.4954
     15 C12        -3.1443   -8.7147   -0.4649 C.3       1 <0>        -0.1281
     16 C13        -2.7699   -6.7269   -2.5504 C.2       1 <0>         0.4848
     17 O2         -3.6230   -6.4460   -3.3667 O.2       1 <0>        -0.4573
     18 C14        -1.5612   -7.5244   -2.9678 C.3       1 <0>        -0.1819
     19 H1         -0.7554   -7.5747   -2.2355 H         1 <0>         0.1275
     20 C15        -1.7956   -8.7551   -3.8459 C.3       1 <0>        -0.1104
     21 H2         -1.1438   -9.6151   -3.6916 H         1 <0>         0.1259
     22 C16        -1.1707   -7.4936   -4.4468 C.3       1 <0>        -0.0743
     23 C17        -2.0373   -6.6554   -5.3889 C.3       1 <0>        -0.1172
     24 C18         0.3209   -7.5363   -4.7847 C.3       1 <0>        -0.1157
     25 C19        -3.2176   -9.0775   -4.2269 C.2       1 <0>        -0.0730
     26 C20        -3.4946  -10.2090   -4.8332 C.2       1 <0>        -0.0522
     27 Cl1        -2.2227  -11.3335   -5.1958 Cl        1 <0>        -0.0483
     28 Cl2        -5.1327  -10.5803   -5.2721 Cl        1 <0>        -0.0444
     29 O3         -2.6993   -4.0287   -1.8341 O.3       1 <0>        -0.6412
     30 H3          1.0740    1.0706    2.0316 H         1 <0>         0.0500
     31 H4         -0.3420    1.3264    0.9837 H         1 <0>         0.0527
     32 H5         -0.5667    0.9919    2.7175 H         1 <0>         0.0522
     33 H6          0.6005   -0.9452    0.6675 H         1 <0>         0.0607
     34 H7          0.3758   -1.2798    2.4012 H         1 <0>         0.0599
     35 H8         -2.0659   -0.9255    2.1531 H         1 <0>         0.0615
     36 H9         -1.8411   -0.5910    0.4194 H         1 <0>         0.0631
     37 H10        -0.8987   -2.8626    0.1032 H         1 <0>         0.0678
     38 H11        -1.1234   -3.1972    1.8369 H         1 <0>         0.0633
     39 H12        -3.5650   -2.8429    1.5888 H         1 <0>         0.0836
     40 H13        -3.3403   -2.5084   -0.1449 H         1 <0>         0.0907
     41 H14        -2.1516   -9.1469   -0.3386 H         1 <0>         0.0830
     42 H15        -3.8451   -9.2119    0.2057 H         1 <0>         0.0706
     43 H16        -3.4706   -8.8493   -1.4962 H         1 <0>         0.0679
     44 H17        -2.0235   -5.6146   -5.0656 H         1 <0>         0.0681
     45 H18        -1.6444   -6.7261   -6.4032 H         1 <0>         0.0518
     46 H19        -3.0612   -7.0286   -5.3691 H         1 <0>         0.0744
     47 H20         0.7565   -8.4546   -4.3909 H         1 <0>         0.0589
     48 H21         0.4493   -7.5082   -5.8667 H         1 <0>         0.0636
     49 H22         0.8196   -6.6766   -4.3372 H         1 <0>         0.0664
     50 H23        -4.0089   -8.3779   -4.0014 H         1 <0>         0.1617
@<TRIPOS>BOND
     1    1    2 1
     2    1   30 1
     3    1   31 1
     4    1   32 1
     5    2    3 1
     6    2   33 1
     7    2   34 1
     8    3    4 1
     9    3   35 1
    10    3   36 1
    11    4    5 1
    12    4   37 1
    13    4   38 1
    14    5    6 1
    15    5   39 1
    16    5   40 1
    17    6   11 am
    18    6    7 1
    19    7    8 2
    20    7   29 1
    21    8    9 1
    22    8   16 1
    23    9   10 2
    24    9   15 1
    25   10   11 1
    26   10   13 1
    27   11   12 2
    28   13   14 3
    29   15   41 1
    30   15   42 1
    31   15   43 1
    32   16   17 2
    33   16   18 1
    34   18   19 1
    35   18   22 1
    36   18   20 1
    37   20   21 1
    38   20   22 1
    39   20   25 1
    40   22   23 1
    41   22   24 1
    42   23   44 1
    43   23   45 1
    44   23   46 1
    45   24   47 1
    46   24   48 1
    47   24   49 1
    48   25   26 2
    49   25   50 1
    50   26   27 1
    51   26   28 1
@<TRIPOS>MOLECULE
ZINC59366053
   51    53     0     0     0
SMALL
USER_CHARGES

@<TRIPOS>ATOM
      1 C1         -0.2270    1.8848   -0.3300 C.3       1 <0>        -0.1460
      2 C2         -0.3183    0.3588   -0.3937 C.3       1 <0>        -0.0770
      3 C3          0.4124   -0.1376   -1.6147 C.ar      1 <0>        -0.1200
      4 C4         -0.2640   -0.2716   -2.8147 C.ar      1 <0>        -0.1014
      5 C5          0.3978   -0.7252   -3.9362 C.ar      1 <0>        -0.1233
      6 C6          1.7556   -1.0496   -3.8590 C.ar      1 <0>         0.1292
      7 C7          2.4321   -0.9111   -2.6432 C.ar      1 <0>        -0.1647
      8 C8          1.7577   -0.4517   -1.5316 C.ar      1 <0>        -0.0939
      9 N1          2.4174   -1.4997   -4.9649 N.2       1 <0>        -0.4968
     10 C9          3.6109   -1.0185   -5.2617 C.2       1 <0>         0.3037
     11 C10         4.4858   -1.3553   -6.3958 C.2       1 <0>        -0.4235
     12 C11         5.6862   -0.6970   -6.4639 C.2       1 <0>         0.3504
     13 O1          6.5524   -0.9439   -7.4726 O.3       1 <0>        -0.5829
     14 C12         6.0002    0.2472   -5.4569 C.2       1 <0>        -0.1306
     15 C13         7.1260    1.0064   -5.3325 C.2       1 <0>        -0.0016
     16 C14         7.1932    2.0554   -4.3112 C.ar      1 <0>        -0.0894
     17 C15         6.0183    2.5518   -3.7314 C.ar      1 <0>        -0.0680
     18 C16         6.0903    3.5376   -2.7725 C.ar      1 <0>        -0.1532
     19 C17         7.3196    4.0419   -2.3779 C.ar      1 <0>        -0.0775
     20 C18         8.4870    3.5627   -2.9409 C.ar      1 <0>        -0.2147
     21 C19         8.4374    2.5665   -3.9024 C.ar      1 <0>         0.1451
     22 O2          9.5837    2.0910   -4.4514 O.3       1 <0>        -0.3077
     23 C20        10.8099    2.6584   -3.9861 C.3       1 <0>         0.0272
     24 S1          4.5690    0.2113   -4.3936 S.3       1 <0>        -0.1148
     25 C21         4.0941   -2.3443   -7.4006 C.2       1 <0>         0.5369
     26 O3          4.8411   -2.5998   -8.3261 O.2       1 <0>        -0.5320
     27 O4          2.9046   -2.9729   -7.3006 O.3       1 <0>        -0.3410
     28 C22         2.5873   -3.9264   -8.3165 C.3       1 <0>         0.0630
     29 C23         1.2098   -4.5306   -8.0366 C.3       1 <0>        -0.1435
     30 H1          0.8196    2.1841   -0.2738 H         1 <0>         0.0551
     31 H2         -0.6800    2.3135   -1.2239 H         1 <0>         0.0544
     32 H3         -0.7555    2.2438    0.5531 H         1 <0>         0.0515
     33 H4          0.1347   -0.0699    0.5002 H         1 <0>         0.0653
     34 H5         -1.3649    0.0595   -0.4499 H         1 <0>         0.0652
     35 H6         -1.3128   -0.0207   -2.8728 H         1 <0>         0.1161
     36 H7         -0.1315   -0.8300   -4.8718 H         1 <0>         0.1219
     37 H8          3.4808   -1.1600   -2.5758 H         1 <0>         0.1247
     38 H9          2.2798   -0.3406   -0.5927 H         1 <0>         0.1143
     39 H10         7.9681    0.8348   -5.9866 H         1 <0>         0.1513
     40 H11         5.0581    2.1625   -4.0361 H         1 <0>         0.1502
     41 H12         5.1843    3.9199   -2.3259 H         1 <0>         0.1256
     42 H13         7.3653    4.8151   -1.6253 H         1 <0>         0.1230
     43 H14         9.4401    3.9623   -2.6275 H         1 <0>         0.1277
     44 H15        10.8127    3.7301   -4.1846 H         1 <0>         0.0546
     45 H16        10.9057    2.4871   -2.9139 H         1 <0>         0.0547
     46 H17        11.6467    2.1906   -4.5050 H         1 <0>         0.1002
     47 H18         2.5766   -3.4322   -9.2880 H         1 <0>         0.0521
     48 H19         3.3372   -4.7174   -8.3195 H         1 <0>         0.0520
     49 H20         1.2204   -5.0247   -7.0651 H         1 <0>         0.0614
     50 H21         0.4599   -3.7395   -8.0336 H         1 <0>         0.0615
     51 H22         0.9677   -5.2578   -8.8115 H         1 <0>         0.0654
@<TRIPOS>BOND
     1    1    2 1
     2    1   30 1
     3    1   31 1
     4    1   32 1
     5    2    3 1
     6    2   33 1
     7    2   34 1
     8    3    8 ar
     9    3    4 ar
    10    4    5 ar
    11    4   35 1
    12    5    6 ar
    13    5   36 1
    14    6    7 ar
    15    6    9 1
    16    7    8 ar
    17    7   37 1
    18    8   38 1
    19    9   10 2
    20   10   24 1
    21   10   11 1
    22   11   12 2
    23   11   25 1
    24   12   13 1
    25   12   14 1
    26   14   15 2
    27   14   24 1
    28   15   16 1
    29   15   39 1
    30   16   21 ar
    31   16   17 ar
    32   17   18 ar
    33   17   40 1
    34   18   19 ar
    35   18   41 1
    36   19   20 ar
    37   19   42 1
    38   20   21 ar
    39   20   43 1
    40   21   22 1
    41   22   23 1
    42   23   44 1
    43   23   45 1
    44   23   46 1
    45   25   26 2
    46   25   27 1
    47   27   28 1
    48   28   29 1
    49   28   47 1
    50   28   48 1
    51   29   49 1
    52   29   50 1
    53   29   51 1
@<TRIPOS>MOLECULE
ZINC35095184
   42    42     0     0     0
SMALL
USER_CHARGES

@<TRIPOS>ATOM
      1 C1         -0.0187    1.5258    0.0104 C.3       1 <0>        -0.1505
      2 C2          0.0021   -0.0041    0.0020 C.3       1 <0>        -0.1250
      3 C3         -1.4333   -0.5336    0.0129 C.3       1 <0>        -0.1179
      4 C4         -1.4126   -2.0635    0.0045 C.3       1 <0>        -0.1092
      5 C5         -2.8479   -2.5931    0.0153 C.3       1 <0>         0.0749
      6 H1         -3.4008   -2.1613   -0.8189 H         1 <0>         0.0831
      7 C6         -2.8306   -4.0942   -0.1167 C.2       1 <0>         0.4904
      8 O1         -3.1450   -4.7932    0.8314 O.co2     1 <0>        -0.6874
      9 O2         -2.5021   -4.6096   -1.1717 O.co2     1 <0>        -0.6978
     10 N1         -3.4961   -2.2212    1.2754 N.am      1 <0>        -0.6858
     11 C7         -4.8381   -2.1129    1.3366 C.2       1 <0>         0.5533
     12 O3         -5.5107   -2.3238    0.3462 O.2       1 <0>        -0.5463
     13 C8         -5.4923   -1.7376    2.6082 C.ar      1 <0>        -0.1185
     14 C9         -4.7226   -1.4891    3.7457 C.ar      1 <0>        -0.0840
     15 C10        -5.3392   -1.1389    4.9291 C.ar      1 <0>        -0.1264
     16 C11        -6.7175   -1.0341    4.9899 C.ar      1 <0>        -0.0647
     17 C12        -7.4864   -1.2795    3.8661 C.ar      1 <0>        -0.1244
     18 C13        -6.8819   -1.6246    2.6749 C.ar      1 <0>        -0.0618
     19 C14        -7.3843   -0.6516    6.2861 C.3       1 <0>        -0.0575
     20 C15        -8.1775    0.6419    6.0893 C.3       1 <0>        -0.1440
     21 C16        -8.3329   -1.7704    6.7213 C.3       1 <0>        -0.1451
     22 H2          1.0039    1.9031    0.0027 H         1 <0>         0.0492
     23 H3         -0.5459    1.8868   -0.8726 H         1 <0>         0.0519
     24 H4         -0.5289    1.8773    0.9072 H         1 <0>         0.0510
     25 H5          0.5123   -0.3556   -0.8948 H         1 <0>         0.0612
     26 H6          0.5293   -0.3651    0.8851 H         1 <0>         0.0592
     27 H7         -1.9435   -0.1821    0.9097 H         1 <0>         0.0574
     28 H8         -1.9605   -0.1726   -0.8702 H         1 <0>         0.0598
     29 H9         -0.9024   -2.4150   -0.8923 H         1 <0>         0.0802
     30 H10        -0.8854   -2.4246    0.8875 H         1 <0>         0.0599
     31 H11        -2.9595   -2.0529    2.0657 H         1 <0>         0.3890
     32 H12        -3.6467   -1.5712    3.6997 H         1 <0>         0.1253
     33 H13        -4.7448   -0.9463    5.8100 H         1 <0>         0.1239
     34 H14        -8.5618   -1.1964    3.9203 H         1 <0>         0.1241
     35 H15        -7.4828   -1.8111    1.7972 H         1 <0>         0.1342
     36 H16        -6.6256   -0.4993    7.0538 H         1 <0>         0.0772
     37 H17        -8.6598    0.9186    7.0268 H         1 <0>         0.0563
     38 H18        -7.5017    1.4389    5.7792 H         1 <0>         0.0559
     39 H19        -8.9361    0.4896    5.3215 H         1 <0>         0.0575
     40 H20        -7.7678   -2.6918    6.8615 H         1 <0>         0.0574
     41 H21        -8.8151   -1.4936    7.6588 H         1 <0>         0.0563
     42 H22        -9.0915   -1.9226    5.9536 H         1 <0>         0.0577
@<TRIPOS>BOND
     1    1    2 1
     2    1   22 1
     3    1   23 1
     4    1   24 1
     5    2    3 1
     6    2   25 1
     7    2   26 1
     8    3    4 1
     9    3   27 1
    10    3   28 1
    11    4    5 1
    12    4   29 1
    13    4   30 1
    14    5    6 1
    15    5    7 1
    16    5   10 1
    17    7    8 2
    18    7    9 1
    19   10   11 am
    20   10   31 1
    21   11   12 2
    22   11   13 1
    23   13   18 ar
    24   13   14 ar
    25   14   15 ar
    26   14   32 1
    27   15   16 ar
    28   15   33 1
    29   16   17 ar
    30   16   19 1
    31   17   18 ar
    32   17   34 1
    33   18   35 1
    34   19   20 1
    35   19   21 1
    36   19   36 1
    37   20   37 1
    38   20   38 1
    39   20   39 1
    40   21   40 1
    41   21   41 1
    42   21   42 1
@<TRIPOS>MOLECULE
ZINC36981117
   34    34     0     0     0
SMALL
USER_CHARGES

@<TRIPOS>ATOM
      1 C1         -0.0187    1.5258    0.0104 C.3       1 <0>        -0.1604
      2 C2          0.0021   -0.0041    0.0020 C.3       1 <0>         0.1629
      3 H1         -1.0205   -0.3814    0.0098 H         1 <0>         0.0877
      4 C3          0.7182   -0.4975   -1.2568 C.3       1 <0>        -0.1973
      5 C4          0.6316   -2.0003   -1.3275 C.2       1 <0>         0.4876
      6 O1          0.0510   -2.6194   -0.4522 O.co2     1 <0>        -0.6869
      7 O2          1.1423   -2.5972   -2.2600 O.co2     1 <0>        -0.7065
      8 N1          0.7106   -0.4894    1.1889 N.am      1 <0>        -0.6923
      9 C5          0.0512   -0.6335    2.3554 C.2       1 <0>         0.5259
     10 O3         -1.1288   -0.3614    2.4226 O.2       1 <0>        -0.5553
     11 C6          0.7801   -1.1327    3.5763 C.3       1 <0>        -0.1271
     12 C7         -0.1910   -1.2038    4.7565 C.3       1 <0>        -0.0904
     13 S1          0.6863   -1.8047    6.2261 S.3       1 <0>        -0.0920
     14 C8         -0.5508   -1.8300    7.4805 C.ar      1 <0>        -0.0634
     15 C9         -1.8508   -1.4390    7.1836 C.ar      1 <0>        -0.1146
     16 C10        -2.8196   -1.4593    8.1677 C.ar      1 <0>        -0.1011
     17 C11        -2.4973   -1.8687    9.4502 C.ar      1 <0>         0.0557
     18 C12        -1.2010   -2.2591    9.7503 C.ar      1 <0>         0.0872
     19 C13        -0.2293   -2.2462    8.7661 C.ar      1 <0>        -0.1117
     20 F1         -0.8885   -2.6579   11.0027 F         1 <0>        -0.1261
     21 F2         -3.4470   -1.8875   10.4110 F         1 <0>        -0.1292
     22 H2          1.0039    1.9031    0.0027 H         1 <0>         0.0500
     23 H3         -0.5459    1.8868   -0.8726 H         1 <0>         0.0604
     24 H4         -0.5289    1.8773    0.9072 H         1 <0>         0.0530
     25 H5          0.2444   -0.0644   -2.1377 H         1 <0>         0.0725
     26 H6          1.7648   -0.1951   -1.2215 H         1 <0>         0.0614
     27 H7          1.6544   -0.7070    1.1351 H         1 <0>         0.3955
     28 H8          1.1839   -2.1254    3.3778 H         1 <0>         0.1062
     29 H9          1.5952   -0.4503    3.8172 H         1 <0>         0.0995
     30 H10        -0.5949   -0.2111    4.9551 H         1 <0>         0.0988
     31 H11        -1.0062   -1.8862    4.5157 H         1 <0>         0.1018
     32 H12        -2.1034   -1.1191    6.1835 H         1 <0>         0.1464
     33 H13        -3.8297   -1.1549    7.9365 H         1 <0>         0.1505
     34 H14         0.7793   -2.5551    8.9980 H         1 <0>         0.1513
@<TRIPOS>BOND
     1    1    2 1
     2    1   22 1
     3    1   23 1
     4    1   24 1
     5    2    3 1
     6    2    4 1
     7    2    8 1
     8    4    5 1
     9    4   25 1
    10    4   26 1
    11    5    6 2
    12    5    7 1
    13    8    9 am
    14    8   27 1
    15    9   10 2
    16    9   11 1
    17   11   12 1
    18   11   28 1
    19   11   29 1
    20   12   13 1
    21   12   30 1
    22   12   31 1
    23   13   14 1
    24   14   19 ar
    25   14   15 ar
    26   15   16 ar
    27   15   32 1
    28   16   17 ar
    29   16   33 1
    30   17   18 ar
    31   17   21 1
    32   18   19 ar
    33   18   20 1
    34   19   34 1
@<TRIPOS>MOLECULE
ZINC40215522
   46    47     0     0     0
SMALL
USER_CHARGES

@<TRIPOS>ATOM
      1 C1         -0.9692    1.9060    1.0107 C.3       1 <0>        -0.1467
      2 C2         -0.7700    0.4007    0.8226 C.3       1 <0>        -0.0948
      3 C3         -2.1338   -0.2872    0.7355 C.3       1 <0>        -0.1083
      4 C4         -1.9346   -1.7925    0.5474 C.3       1 <0>        -0.1257
      5 C5         -1.1541   -2.3562    1.7364 C.3       1 <0>         0.1481
      6 C6          0.2098   -1.6682    1.8236 C.3       1 <0>        -0.1324
      7 C7          0.0106   -0.1630    2.0117 C.3       1 <0>        -0.1099
      8 N1         -0.9634   -3.7975    1.5563 N.am      1 <0>        -0.7377
      9 C8         -0.7757   -4.5917    2.6289 C.2       1 <0>         0.5187
     10 O1         -0.7646   -4.1131    3.7433 O.2       1 <0>        -0.5359
     11 C9         -0.5795   -6.0743    2.4436 C.3       1 <0>        -0.1355
     12 C10        -0.2434   -6.7166    3.7910 C.3       1 <0>        -0.0136
     13 C11        -0.1282   -8.2468    3.6329 C.3       1 <0>        -0.1036
     14 C12        -0.7362   -8.8107    4.9411 C.3       1 <0>        -0.1284
     15 C13        -1.9189   -7.8477    5.2112 C.3       1 <0>        -0.1264
     16 C14        -1.3819   -6.4629    4.7945 C.3       1 <0>        -0.1033
     17 C15         1.0687   -6.1443    4.3313 C.3       1 <0>        -0.1775
     18 C16         2.1816   -6.4331    3.3570 C.2       1 <0>         0.4912
     19 O2          1.9704   -7.1307    2.3797 O.co2     1 <0>        -0.6942
     20 O3          3.2931   -5.9691    3.5462 O.co2     1 <0>        -0.7096
     21 H1          0.0025    2.3961    1.0728 H         1 <0>         0.0536
     22 H2         -1.5252    2.3076    0.1636 H         1 <0>         0.0518
     23 H3         -1.5266    2.0867    1.9298 H         1 <0>         0.0536
     24 H4         -0.2125    0.2201   -0.0965 H         1 <0>         0.0696
     25 H5         -2.6912   -0.1065    1.6546 H         1 <0>         0.0634
     26 H6         -2.6899    0.1144   -0.1116 H         1 <0>         0.0633
     27 H7         -2.9062   -2.2826    0.4853 H         1 <0>         0.0660
     28 H8         -1.3772   -1.9732   -0.3717 H         1 <0>         0.0664
     29 H9         -1.7115   -2.1755    2.6555 H         1 <0>         0.0831
     30 H10         0.7658   -2.0698    2.6707 H         1 <0>         0.0715
     31 H11         0.7672   -1.8489    0.9045 H         1 <0>         0.0623
     32 H12         0.9822    0.3272    2.0737 H         1 <0>         0.0628
     33 H13        -0.5469    0.0177    2.9308 H         1 <0>         0.0624
     34 H14        -0.9722   -4.1803    0.6651 H         1 <0>         0.3964
     35 H15        -1.4948   -6.5154    2.0491 H         1 <0>         0.0748
     36 H16         0.2384   -6.2480    1.7443 H         1 <0>         0.1246
     37 H17        -0.7007   -8.5853    2.7693 H         1 <0>         0.0524
     38 H18         0.9165   -8.5431    3.5391 H         1 <0>         0.0884
     39 H19        -1.0938   -9.8297    4.7931 H         1 <0>         0.0547
     40 H20        -0.0108   -8.7690    5.7536 H         1 <0>         0.0600
     41 H21        -2.7806   -8.1217    4.6025 H         1 <0>         0.0551
     42 H22        -2.1810   -7.8527    6.2692 H         1 <0>         0.0527
     43 H23        -0.9996   -5.9327    5.6668 H         1 <0>         0.0604
     44 H24        -2.1739   -5.8821    4.3216 H         1 <0>         0.0530
     45 H25         0.9692   -5.0665    4.4602 H         1 <0>         0.0725
     46 H26         1.2979   -6.6055    5.2919 H         1 <0>         0.0510
@<TRIPOS>BOND
     1    1    2 1
     2    1   21 1
     3    1   22 1
     4    1   23 1
     5    2    7 1
     6    2    3 1
     7    2   24 1
     8    3    4 1
     9    3   25 1
    10    3   26 1
    11    4    5 1
    12    4   27 1
    13    4   28 1
    14    5    6 1
    15    5    8 1
    16    5   29 1
    17    6    7 1
    18    6   30 1
    19    6   31 1
    20    7   32 1
    21    7   33 1
    22    8    9 am
    23    8   34 1
    24    9   10 2
    25    9   11 1
    26   11   12 1
    27   11   35 1
    28   11   36 1
    29   12   16 1
    30   12   13 1
    31   12   17 1
    32   13   14 1
    33   13   37 1
    34   13   38 1
    35   14   15 1
    36   14   39 1
    37   14   40 1
    38   15   16 1
    39   15   41 1
    40   15   42 1
    41   16   43 1
    42   16   44 1
    43   17   18 1
    44   17   45 1
    45   17   46 1
    46   18   19 2
    47   18   20 1
@<TRIPOS>MOLECULE
ZINC48439812
   39    39     0     0     0
SMALL
USER_CHARGES

@<TRIPOS>ATOM
      1 C1         -0.0187    1.5258    0.0104 C.3       1 <0>        -0.1533
      2 C2          0.0021   -0.0041    0.0020 C.3       1 <0>        -0.1047
      3 C3         -1.4333   -0.5336    0.0129 C.3       1 <0>        -0.1134
      4 C4         -2.1494   -0.0402    1.2717 C.3       1 <0>        -0.0957
      5 C5         -1.4095   -0.5471    2.5112 C.3       1 <0>        -0.1451
      6 C6         -2.1733   -0.0268   -1.2266 C.3       1 <0>        -0.1118
      7 C7         -1.4679   -0.5128   -2.4665 C.2       1 <0>         0.5082
      8 O1         -0.4715   -1.1972   -2.3684 O.2       1 <0>        -0.4924
      9 N1         -1.9444   -0.1869   -3.6844 N.am      1 <0>        -0.7424
     10 C8         -1.2587   -0.6594   -4.8897 C.3       1 <0>         0.2059
     11 C9         -1.9876   -0.1602   -6.1106 C.2       1 <0>        -0.1568
     12 C10        -1.8005    0.9879   -6.8065 C.2       1 <0>        -0.1387
     13 C11        -2.5954    1.2408   -7.9087 C.2       1 <0>        -0.1650
     14 C12        -3.5385    0.3332   -8.2611 C.2       1 <0>        -0.1460
     15 S1         -3.3162   -0.9311   -7.0204 S.3       1 <0>         0.0503
     16 C13        -4.5169    0.3772   -9.4065 C.3       1 <0>        -0.0699
     17 C14        -1.4129   -2.0405    0.0046 C.2       1 <0>         0.5156
     18 O2         -0.3489   -2.6357   -0.0088 O.co2     1 <0>        -0.6809
     19 O3         -2.4603   -2.6644    0.0112 O.co2     1 <0>        -0.7143
     20 H1          1.0039    1.9031    0.0027 H         1 <0>         0.0402
     21 H2         -0.5459    1.8868   -0.8726 H         1 <0>         0.0420
     22 H3         -0.5289    1.8773    0.9072 H         1 <0>         0.0479
     23 H4          0.5123   -0.3556   -0.8948 H         1 <0>         0.0845
     24 H5          0.5293   -0.3651    0.8851 H         1 <0>         0.0572
     25 H6         -2.1642    1.0497    1.2777 H         1 <0>         0.0460
     26 H7         -3.1720   -0.4175    1.2794 H         1 <0>         0.0586
     27 H8         -0.3869   -0.1698    2.5035 H         1 <0>         0.0512
     28 H9         -1.9196   -0.1955    3.4080 H         1 <0>         0.0389
     29 H10        -1.3947   -1.6369    2.5052 H         1 <0>         0.0593
     30 H11        -3.1959   -0.4041   -1.2189 H         1 <0>         0.0895
     31 H12        -2.1881    1.0631   -1.2207 H         1 <0>         0.0771
     32 H13        -2.7414    0.3604   -3.7629 H         1 <0>         0.3959
     33 H14        -0.2361   -0.2821   -4.8975 H         1 <0>         0.0870
     34 H15        -1.2439   -1.7493   -4.8957 H         1 <0>         0.0799
     35 H16        -1.0420    1.6947   -6.5040 H         1 <0>         0.1340
     36 H17        -2.4673    2.1481   -8.4803 H         1 <0>         0.1309
     37 H18        -4.0695   -0.0883  -10.2847 H         1 <0>         0.0776
     38 H19        -5.4231   -0.1623   -9.1312 H         1 <0>         0.0734
     39 H20        -4.7657    1.4142   -9.6321 H         1 <0>         0.0793
@<TRIPOS>BOND
     1    1    2 1
     2    1   20 1
     3    1   21 1
     4    1   22 1
     5    2    3 1
     6    2   23 1
     7    2   24 1
     8    3    4 1
     9    3    6 1
    10    3   17 1
    11    4    5 1
    12    4   25 1
    13    4   26 1
    14    5   27 1
    15    5   28 1
    16    5   29 1
    17    6    7 1
    18    6   30 1
    19    6   31 1
    20    7    8 2
    21    7    9 am
    22    9   10 1
    23    9   32 1
    24   10   11 1
    25   10   33 1
    26   10   34 1
    27   11   15 1
    28   11   12 2
    29   12   13 1
    30   12   35 1
    31   13   14 2
    32   13   36 1
    33   14   15 1
    34   14   16 1
    35   16   37 1
    36   16   38 1
    37   16   39 1
    38   17   18 2
    39   17   19 1
@<TRIPOS>MOLECULE
ZINC61826255
   39    39     0     0     0
SMALL
USER_CHARGES

@<TRIPOS>ATOM
      1 C1         -0.0187    1.5258    0.0104 C.3       1 <0>        -0.1559
      2 C2          0.0021   -0.0041    0.0020 C.3       1 <0>        -0.0197
      3 C3          0.7421   -0.5109    1.2415 C.3       1 <0>        -0.1555
      4 C4         -1.4333   -0.5336    0.0129 C.3       1 <0>        -0.1334
      5 C5         -2.1387   -0.0476    1.2528 C.2       1 <0>         0.5139
      6 O1         -1.5512    0.6533    2.0493 O.2       1 <0>        -0.5172
      7 N1         -3.4224   -0.3919    1.4765 N.am      1 <0>        -0.7423
      8 C6         -4.1081    0.0805    2.6818 C.3       1 <0>         0.1263
      9 C7         -5.5435   -0.4490    2.6926 C.3       1 <0>        -0.0918
     10 C8         -6.2489    0.0370    3.9325 C.ar      1 <0>        -0.1137
     11 C9         -6.2910   -0.7598    5.0612 C.ar      1 <0>        -0.0854
     12 C10        -6.9379   -0.3143    6.1985 C.ar      1 <0>        -0.1290
     13 C11        -7.5435    0.9286    6.2087 C.ar      1 <0>        -0.0938
     14 C12        -7.5022    1.7271    5.0818 C.ar      1 <0>        -0.1533
     15 C13        -6.8499    1.2840    3.9434 C.ar      1 <0>         0.1034
     16 F1         -6.8049    2.0658    2.8425 F         1 <0>        -0.1353
     17 C14         0.7182   -0.4975   -1.2568 C.3       1 <0>        -0.1761
     18 C15         2.1320    0.0241   -1.2675 C.2       1 <0>         0.4942
     19 O2          2.5300    0.7255   -0.3530 O.co2     1 <0>        -0.6810
     20 O3          2.8779   -0.2552   -2.1906 O.co2     1 <0>        -0.7105
     21 H1          1.0039    1.9031    0.0027 H         1 <0>         0.0938
     22 H2         -0.5459    1.8868   -0.8726 H         1 <0>         0.0219
     23 H3         -0.5289    1.8773    0.9072 H         1 <0>         0.0606
     24 H4          0.2319   -0.1594    2.1383 H         1 <0>         0.0606
     25 H5          0.7568   -1.6008    1.2356 H         1 <0>         0.0217
     26 H6          1.7647   -0.1336    1.2338 H         1 <0>         0.0938
     27 H7         -1.9605   -0.1726   -0.8702 H         1 <0>         0.0845
     28 H8         -1.4185   -1.6235    0.0069 H         1 <0>         0.0845
     29 H9         -3.8923   -0.9525    0.8394 H         1 <0>         0.3974
     30 H10        -3.5809   -0.2805    3.5648 H         1 <0>         0.0676
     31 H11        -4.1229    1.1704    2.6878 H         1 <0>         0.0659
     32 H12        -6.0707   -0.0880    1.8096 H         1 <0>         0.0825
     33 H13        -5.5287   -1.5389    2.6867 H         1 <0>         0.0850
     34 H14        -5.8187   -1.7310    5.0542 H         1 <0>         0.1336
     35 H15        -6.9707   -0.9377    7.0798 H         1 <0>         0.1300
     36 H16        -8.0492    1.2754    7.0977 H         1 <0>         0.1320
     37 H17        -7.9756    2.6978    5.0899 H         1 <0>         0.1353
     38 H18         0.7330   -1.5874   -1.2628 H         1 <0>         0.0526
     39 H19         0.1910   -0.1364   -2.1398 H         1 <0>         0.0527
@<TRIPOS>BOND
     1    1    2 1
     2    1   21 1
     3    1   22 1
     4    1   23 1
     5    2    3 1
     6    2    4 1
     7    2   17 1
     8    3   24 1
     9    3   25 1
    10    3   26 1
    11    4    5 1
    12    4   27 1
    13    4   28 1
    14    5    6 2
    15    5    7 am
    16    7    8 1
    17    7   29 1
    18    8    9 1
    19    8   30 1
    20    8   31 1
    21    9   10 1
    22    9   32 1
    23    9   33 1
    24   10   15 ar
    25   10   11 ar
    26   11   12 ar
    27   11   34 1
    28   12   13 ar
    29   12   35 1
    30   13   14 ar
    31   13   36 1
    32   14   15 ar
    33   14   37 1
    34   15   16 1
    35   17   18 1
    36   17   38 1
    37   17   39 1
    38   18   19 2
    39   18   20 1
@<TRIPOS>MOLECULE
ZINC19407892
   42    42     0     0     0
SMALL
USER_CHARGES
(2S,3R)-3-methyl-2-[(2-methyl-2-phenyl-propanoyl)amino]pentanoic acid
@<TRIPOS>ATOM
      1 C1         -3.3303    2.2759    1.1811 C.3       1 <0>        -0.1522
      2 C2         -2.3027    1.5308    2.0354 C.3       1 <0>        -0.1155
      3 C3         -0.9234    2.1642    1.8420 C.3       1 <0>        -0.0830
      4 H1         -0.6705    2.1723    0.7715 H         1 <0>         0.0836
      5 C4         -0.9422    3.5992    2.3725 C.3       1 <0>        -0.1428
      6 C5          0.1229    1.3513    2.6072 C.3       1 <0>         0.1096
      7 H2          0.1501    0.3100    2.2538 H         1 <0>         0.0835
      8 C6          1.4786    1.9855    2.4316 C.2       1 <0>         0.4642
      9 O1          1.9128    2.7279    3.2803 O.co2     1 <0>        -0.6325
     10 O2          2.2038    1.7257    1.3324 O.co2     1 <0>        -0.7695
     11 N1         -0.2237    1.3258    4.0304 N.am      1 <0>        -0.7032
     12 C7          0.2072    0.3150    4.8109 C.2       1 <0>         0.5212
     13 O3          0.8818   -0.5735    4.3350 O.2       1 <0>        -0.5407
     14 C8         -0.1493    0.2888    6.2749 C.3       1 <0>        -0.0430
     15 C9          0.4157    1.5348    6.9598 C.3       1 <0>        -0.1357
     16 C10        -1.6714    0.2681    6.4288 C.3       1 <0>        -0.1408
     17 C11         0.4369   -0.9444    6.9126 C.ar      1 <0>        -0.0513
     18 C12        -0.3969   -1.9142    7.4372 C.ar      1 <0>        -0.1190
     19 C13         0.1407   -3.0478    8.0174 C.ar      1 <0>        -0.1275
     20 C14         1.5124   -3.2066    8.0829 C.ar      1 <0>        -0.1263
     21 C15         2.3463   -2.2342    7.5633 C.ar      1 <0>        -0.1217
     22 C16         1.8086   -1.1032    6.9780 C.ar      1 <0>        -0.0845
     23 H3         -4.3219    1.8206    1.3201 H         1 <0>         0.0474
     24 H4         -3.0423    2.2110    0.1215 H         1 <0>         0.0529
     25 H5         -3.3654    3.3318    1.4876 H         1 <0>         0.0558
     26 H6         -2.5907    1.5957    3.0950 H         1 <0>         0.0584
     27 H7         -2.2676    0.4749    1.7290 H         1 <0>         0.0586
     28 H8          0.0494    4.0545    2.2334 H         1 <0>         0.0677
     29 H9         -1.1951    3.5911    3.4430 H         1 <0>         0.0466
     30 H10        -1.6944    4.1836    1.8224 H         1 <0>         0.0506
     31 H11        -0.8356    2.1316    4.4620 H         1 <0>         0.4040
     32 H12         0.1555    1.5156    8.0284 H         1 <0>         0.0630
     33 H13        -0.0122    2.4349    6.4943 H         1 <0>         0.0663
     34 H14         1.5100    1.5496    6.8491 H         1 <0>         0.0658
     35 H15        -1.9316    0.2490    7.4974 H         1 <0>         0.0676
     36 H16        -2.0776   -0.6278    5.9364 H         1 <0>         0.0630
     37 H17        -2.0993    1.1682    5.9632 H         1 <0>         0.0635
     38 H18        -1.4685   -1.7880    7.3901 H         1 <0>         0.1232
     39 H19        -0.5108   -3.8077    8.4230 H         1 <0>         0.1169
     40 H20         1.9325   -4.0905    8.5395 H         1 <0>         0.1161
     41 H21         3.4179   -2.3582    7.6144 H         1 <0>         0.1188
     42 H22         2.4601   -0.3435    6.5721 H         1 <0>         0.1205
@<TRIPOS>BOND
     1    1    2 1
     2    1   23 1
     3    1   24 1
     4    1   25 1
     5    2    3 1
     6    2   26 1
     7    2   27 1
     8    3    4 1
     9    3    5 1
    10    3    6 1
    11    5   28 1
    12    5   29 1
    13    5   30 1
    14    6    7 1
    15    6    8 1
    16    6   11 1
    17    8    9 2
    18    8   10 1
    19   11   12 am
    20   11   31 1
    21   12   13 2
    22   12   14 1
    23   14   15 1
    24   14   16 1
    25   14   17 1
    26   15   32 1
    27   15   33 1
    28   15   34 1
    29   16   35 1
    30   16   36 1
    31   16   37 1
    32   17   22 ar
    33   17   18 ar
    34   18   19 ar
    35   18   38 1
    36   19   20 ar
    37   19   39 1
    38   20   21 ar
    39   20   40 1
    40   21   22 ar
    41   21   41 1
    42   22   42 1
@<TRIPOS>MOLECULE
ZINC36973461
   40    41     0     0     0
SMALL
USER_CHARGES

@<TRIPOS>ATOM
      1 C1         -2.7666   -3.3842   -1.6138 C.3       1 <0>        -0.1148
      2 C2         -1.6387   -2.6989   -0.8863 C.ar      1 <0>        -0.0849
      3 C3         -0.9181   -1.6993   -1.5131 C.ar      1 <0>        -0.1219
      4 C4          0.1163   -1.0707   -0.8459 C.ar      1 <0>        -0.1122
      5 C5          0.4302   -1.4413    0.4486 C.ar      1 <0>        -0.1183
      6 C6         -0.2908   -2.4400    1.0755 C.ar      1 <0>        -0.0617
      7 C7         -1.3283   -3.0658    0.4096 C.ar      1 <0>        -0.1075
      8 C8          0.0517   -2.8443    2.4863 C.3       1 <0>        -0.0702
      9 C9          1.5302   -2.6256    2.8481 C.3       1 <0>        -0.1242
     10 C10         1.4637   -3.9668    3.5976 C.3       1 <0>        -0.1412
     11 C11         0.3162   -4.3505    2.6486 C.3       1 <0>        -0.1117
     12 C12        -0.9096   -2.2871    3.5044 C.2       1 <0>         0.5405
     13 O1         -1.6225   -3.0357    4.1386 O.2       1 <0>        -0.5400
     14 N1         -0.9771   -0.9568    3.7102 N.am      1 <0>        -0.7187
     15 C13        -1.8324   -0.4224    4.7727 C.3       1 <0>         0.1156
     16 C14        -1.7273    1.1039    4.7928 C.3       1 <0>        -0.1035
     17 C15        -2.6207    1.6620    5.9025 C.3       1 <0>        -0.1806
     18 C16        -2.5171    3.1653    5.9223 C.2       1 <0>         0.4901
     19 O2         -1.7957    3.7373    5.1230 O.co2     1 <0>        -0.6991
     20 O3         -3.1548    3.8096    6.7377 O.co2     1 <0>        -0.7054
     21 H1         -3.6965   -2.8454   -1.4323 H         1 <0>         0.0708
     22 H2         -2.5557   -3.3950   -2.6832 H         1 <0>         0.0653
     23 H3         -2.8632   -4.4079   -1.2522 H         1 <0>         0.0656
     24 H4         -1.1633   -1.4098   -2.5243 H         1 <0>         0.1204
     25 H5          0.6796   -0.2903   -1.3359 H         1 <0>         0.1238
     26 H6          1.2389   -0.9507    0.9697 H         1 <0>         0.1250
     27 H7         -1.8941   -3.8436    0.9009 H         1 <0>         0.1216
     28 H8          2.1974   -2.6397    1.9863 H         1 <0>         0.0942
     29 H9          1.6980   -1.7687    3.5005 H         1 <0>         0.0755
     30 H10         2.3560   -4.5806    3.4744 H         1 <0>         0.0727
     31 H11         1.1556   -3.8703    4.6387 H         1 <0>         0.0830
     32 H12        -0.4962   -4.8860    3.1399 H         1 <0>         0.0843
     33 H13         0.6513   -4.8361    1.7321 H         1 <0>         0.0880
     34 H14        -0.4593   -0.3533    3.1547 H         1 <0>         0.4012
     35 H15        -2.8665   -0.7129    4.5873 H         1 <0>         0.0638
     36 H16        -1.5097   -0.8215    5.7343 H         1 <0>         0.0635
     37 H17        -0.6933    1.3944    4.9782 H         1 <0>         0.0661
     38 H18        -2.0501    1.5030    3.8313 H         1 <0>         0.0660
     39 H19        -3.6547    1.3714    5.7171 H         1 <0>         0.0593
     40 H20        -2.2979    1.2629    6.8641 H         1 <0>         0.0594
@<TRIPOS>BOND
     1    1    2 1
     2    1   21 1
     3    1   22 1
     4    1   23 1
     5    2    7 ar
     6    2    3 ar
     7    3    4 ar
     8    3   24 1
     9    4    5 ar
    10    4   25 1
    11    5    6 ar
    12    5   26 1
    13    6    7 ar
    14    6    8 1
    15    7   27 1
    16    8   11 1
    17    8    9 1
    18    8   12 1
    19    9   10 1
    20    9   28 1
    21    9   29 1
    22   10   11 1
    23   10   30 1
    24   10   31 1
    25   11   32 1
    26   11   33 1
    27   12   13 2
    28   12   14 am
    29   14   15 1
    30   14   34 1
    31   15   16 1
    32   15   35 1
    33   15   36 1
    34   16   17 1
    35   16   37 1
    36   16   38 1
    37   17   18 1
    38   17   39 1
    39   17   40 1
    40   18   19 2
    41   18   20 1
@<TRIPOS>MOLECULE
ZINC37794575
   40    41     0     0     0
SMALL
USER_CHARGES

@<TRIPOS>ATOM
      1 C1         -0.0187    1.5258    0.0104 C.3       1 <0>        -0.1368
      2 C2          0.0021   -0.0041    0.0020 C.3       1 <0>        -0.0984
      3 C3          0.7182   -0.4975   -1.2568 C.3       1 <0>        -0.1452
      4 C4          0.7421   -0.5109    1.2415 C.3       1 <0>        -0.1167
      5 C5         -0.0416   -0.1236    2.4973 C.3       1 <0>         0.1824
      6 H1         -0.2110    0.9531    2.5022 H         1 <0>         0.0981
      7 C6          0.7462   -0.5138    3.7213 C.ar      1 <0>        -0.0852
      8 C7          0.7405   -1.8255    4.1577 C.ar      1 <0>        -0.1130
      9 C8          1.4631   -2.1834    5.2805 C.ar      1 <0>        -0.1162
     10 C9          2.1917   -1.2298    5.9666 C.ar      1 <0>        -0.1234
     11 C10         2.1981    0.0817    5.5296 C.ar      1 <0>        -0.1180
     12 C11         1.4789    0.4388    4.4043 C.ar      1 <0>        -0.1092
     13 N1         -1.3301   -0.8207    2.5031 N.am      1 <0>        -0.7269
     14 C12        -2.3820   -0.2980    1.8422 C.2       1 <0>         0.5504
     15 O1         -2.2619    0.7494    1.2427 O.2       1 <0>        -0.5309
     16 C13        -3.7075   -1.0150    1.8482 C.3       1 <0>        -0.1868
     17 H2         -3.6531   -2.1037    1.8540 H         1 <0>         0.1218
     18 C14        -4.8609   -0.3613    2.6120 C.3       1 <0>        -0.1401
     19 C15        -4.8634   -0.3696    1.0812 C.3       1 <0>        -0.1607
     20 H3         -4.6651    0.5737    0.5723 H         1 <0>         0.1076
     21 C16        -5.8397   -1.2876    0.3920 C.2       1 <0>         0.5171
     22 O2         -7.0017   -0.9464    0.2507 O.co2     1 <0>        -0.6910
     23 O3         -5.4677   -2.3715   -0.0242 O.co2     1 <0>        -0.6916
     24 H4          1.0039    1.9031    0.0027 H         1 <0>         0.0358
     25 H5         -0.5459    1.8868   -0.8726 H         1 <0>         0.0479
     26 H6         -0.5289    1.8773    0.9072 H         1 <0>         0.0720
     27 H7         -1.0205   -0.3814    0.0098 H         1 <0>         0.0835
     28 H8          1.7408   -0.1202   -1.2645 H         1 <0>         0.0473
     29 H9          0.7330   -1.5874   -1.2628 H         1 <0>         0.0494
     30 H10         0.1910   -0.1364   -2.1398 H         1 <0>         0.0533
     31 H11         0.8346   -1.5958    1.1912 H         1 <0>         0.0635
     32 H12         1.7350   -0.0630    1.2804 H         1 <0>         0.0674
     33 H13         0.1713   -2.5705    3.6217 H         1 <0>         0.1228
     34 H14         1.4582   -3.2080    5.6219 H         1 <0>         0.1226
     35 H15         2.7557   -1.5093    6.8442 H         1 <0>         0.1203
     36 H16         2.7670    0.8268    6.0658 H         1 <0>         0.1218
     37 H17         1.4869    1.4626    4.0607 H         1 <0>         0.1232
     38 H18        -1.4262   -1.6584    2.9826 H         1 <0>         0.3985
     39 H19        -5.5655   -1.0199    3.1199 H         1 <0>         0.0957
     40 H20        -4.6610    0.5874    3.1101 H         1 <0>         0.0874
@<TRIPOS>BOND
     1    1    2 1
     2    1   24 1
     3    1   25 1
     4    1   26 1
     5    2    3 1
     6    2    4 1
     7    2   27 1
     8    3   28 1
     9    3   29 1
    10    3   30 1
    11    4    5 1
    12    4   31 1
    13    4   32 1
    14    5    6 1
    15    5    7 1
    16    5   13 1
    17    7   12 ar
    18    7    8 ar
    19    8    9 ar
    20    8   33 1
    21    9   10 ar
    22    9   34 1
    23   10   11 ar
    24   10   35 1
    25   11   12 ar
    26   11   36 1
    27   12   37 1
    28   13   14 am
    29   13   38 1
    30   14   15 2
    31   14   16 1
    32   16   17 1
    33   16   19 1
    34   16   18 1
    35   18   19 1
    36   18   39 1
    37   18   40 1
    38   19   20 1
    39   19   21 1
    40   21   22 2
    41   21   23 1
@<TRIPOS>MOLECULE
ZINC48204815
   42    42     0     0     0
SMALL
USER_CHARGES

@<TRIPOS>ATOM
      1 C1         -0.0187    1.5258    0.0104 C.3       1 <0>        -0.1466
      2 C2          0.0021   -0.0041    0.0020 C.3       1 <0>        -0.1273
      3 C3          0.7182   -0.4975   -1.2568 C.3       1 <0>        -0.0798
      4 H1          1.7103   -0.0491   -1.3098 H         1 <0>         0.0646
      5 C4         -0.0892   -0.0968   -2.4931 C.3       1 <0>        -0.1430
      6 C5          0.8493   -2.0210   -1.2049 C.3       1 <0>         0.0797
      7 H2         -0.1428   -2.4694   -1.1520 H         1 <0>         0.0791
      8 C6          1.6446   -2.4156    0.0128 C.2       1 <0>         0.4923
      9 O1          1.1635   -2.2813    1.1250 O.co2     1 <0>        -0.6917
     10 O2          2.7691   -2.8692   -0.1143 O.co2     1 <0>        -0.6900
     11 N1          1.5350   -2.4934   -2.4103 N.am      1 <0>        -0.6963
     12 C7          1.3371   -3.7526   -2.8484 C.2       1 <0>         0.5142
     13 O3          0.5913   -4.4945   -2.2448 O.2       1 <0>        -0.5409
     14 C8          2.0425   -4.2386   -4.0882 C.3       1 <0>        -0.1024
     15 C9          1.6527   -5.6687   -4.3599 C.ar      1 <0>        -0.0562
     16 C10         2.3883   -6.7021   -3.8099 C.ar      1 <0>        -0.1030
     17 C11         2.0309   -8.0137   -4.0591 C.ar      1 <0>        -0.1163
     18 C12         0.9375   -8.2924   -4.8580 C.ar      1 <0>        -0.0952
     19 C13         0.2016   -7.2594   -5.4071 C.ar      1 <0>        -0.0916
     20 C14         0.5565   -5.9473   -5.1543 C.ar      1 <0>        -0.1030
     21 C15        -0.9900   -7.5632   -6.2783 C.3       1 <0>        -0.1133
     22 C16         0.5484   -9.7226   -5.1305 C.3       1 <0>        -0.1134
     23 H3          1.0039    1.9031    0.0027 H         1 <0>         0.0477
     24 H4         -0.5459    1.8868   -0.8726 H         1 <0>         0.0458
     25 H5         -0.5289    1.8773    0.9072 H         1 <0>         0.0478
     26 H6          0.5293   -0.3651    0.8851 H         1 <0>         0.1022
     27 H7         -1.0205   -0.3814    0.0098 H         1 <0>         0.0539
     28 H8         -1.0813   -0.5452   -2.4401 H         1 <0>         0.0500
     29 H9         -0.1826    0.9885   -2.5300 H         1 <0>         0.0515
     30 H10         0.4210   -0.4484   -3.3899 H         1 <0>         0.0477
     31 H11         2.1314   -1.9001   -2.8930 H         1 <0>         0.3892
     32 H12         1.7563   -3.6166   -4.9364 H         1 <0>         0.0944
     33 H13         3.1207   -4.1776   -3.9404 H         1 <0>         0.1000
     34 H14         3.2425   -6.4844   -3.1859 H         1 <0>         0.1213
     35 H15         2.6060   -8.8209   -3.6300 H         1 <0>         0.1190
     36 H16        -0.0208   -5.1400   -5.5803 H         1 <0>         0.1170
     37 H17        -1.8850   -7.6289   -5.6597 H         1 <0>         0.0679
     38 H18        -1.1143   -6.7685   -7.0139 H         1 <0>         0.0621
     39 H19        -0.8325   -8.5119   -6.7914 H         1 <0>         0.0668
     40 H20        -0.1529  -10.0600   -4.3673 H         1 <0>         0.0674
     41 H21         0.0782   -9.7906   -6.1115 H         1 <0>         0.0666
     42 H22         1.4383  -10.3516   -5.1097 H         1 <0>         0.0619
@<TRIPOS>BOND
     1    1    2 1
     2    1   23 1
     3    1   24 1
     4    1   25 1
     5    2    3 1
     6    2   26 1
     7    2   27 1
     8    3    4 1
     9    3    5 1
    10    3    6 1
    11    5   28 1
    12    5   29 1
    13    5   30 1
    14    6    7 1
    15    6    8 1
    16    6   11 1
    17    8    9 2
    18    8   10 1
    19   11   12 am
    20   11   31 1
    21   12   13 2
    22   12   14 1
    23   14   15 1
    24   14   32 1
    25   14   33 1
    26   15   20 ar
    27   15   16 ar
    28   16   17 ar
    29   16   34 1
    30   17   18 ar
    31   17   35 1
    32   18   19 ar
    33   18   22 1
    34   19   20 ar
    35   19   21 1
    36   20   36 1
    37   21   37 1
    38   21   38 1
    39   21   39 1
    40   22   40 1
    41   22   41 1
    42   22   42 1
@<TRIPOS>MOLECULE
ZINC57550510
   39    39     0     0     0
SMALL
USER_CHARGES

@<TRIPOS>ATOM
      1 C1          0.3839    2.7549    0.5857 C.3       1 <0>        -0.1513
      2 C2          0.2510    1.2404    0.7571 C.3       1 <0>        -0.1291
      3 C3          0.7949    0.5366   -0.4878 C.3       1 <0>         0.1436
      4 H1          0.2873    0.9200   -1.3729 H         1 <0>         0.0824
      5 C4          0.5488   -0.9690   -0.3709 C.3       1 <0>        -0.1643
      6 N1          2.2334    0.7889   -0.6021 N.am      1 <0>        -0.7391
      7 C5          2.8347    0.7279   -1.8068 C.2       1 <0>         0.5296
      8 O1          2.1848    0.4642   -2.7962 O.2       1 <0>        -0.5176
      9 C6          4.3145    0.9874   -1.9243 C.3       1 <0>        -0.1048
     10 C7          4.7405    0.8565   -3.3880 C.3       1 <0>        -0.1178
     11 H2          4.1328    1.5192   -4.0040 H         1 <0>         0.0835
     12 C8          6.1928    1.2354   -3.5243 C.ar      1 <0>        -0.0285
     13 C9          7.1465    0.6108   -2.7421 C.ar      1 <0>        -0.1138
     14 C10         8.4783    0.9583   -2.8671 C.ar      1 <0>        -0.1272
     15 C11         8.8570    1.9302   -3.7746 C.ar      1 <0>        -0.1389
     16 C12         7.9037    2.5539   -4.5572 C.ar      1 <0>        -0.1234
     17 C13         6.5719    2.2032   -4.4352 C.ar      1 <0>        -0.0850
     18 C14         5.5331    2.8796   -5.2922 C.3       1 <0>        -0.1147
     19 C15         4.5483   -0.5677   -3.8416 C.2       1 <0>         0.5173
     20 O2          4.1110   -1.4008   -3.0662 O.co2     1 <0>        -0.6877
     21 O3          4.8300   -0.8869   -4.9841 O.co2     1 <0>        -0.6981
     22 H3          1.4340    3.0146    0.4511 H         1 <0>         0.0564
     23 H4         -0.1839    3.0729   -0.2887 H         1 <0>         0.0539
     24 H5         -0.0035    3.2563    1.4726 H         1 <0>         0.0512
     25 H6          0.8188    0.9224    1.6315 H         1 <0>         0.0646
     26 H7         -0.7991    0.9808    0.8916 H         1 <0>         0.0725
     27 H8         -0.5215   -1.1567   -0.2859 H         1 <0>         0.0559
     28 H9          0.9363   -1.4704   -1.2578 H         1 <0>         0.0691
     29 H10         1.0564   -1.3524    0.5142 H         1 <0>         0.0521
     30 H11         2.7532    0.9998    0.1893 H         1 <0>         0.3915
     31 H12         4.5361    1.9942   -1.5701 H         1 <0>         0.0697
     32 H13         4.8597    0.2617   -1.3209 H         1 <0>         0.0906
     33 H14         6.8507   -0.1484   -2.0332 H         1 <0>         0.1186
     34 H15         9.2233    0.4709   -2.2556 H         1 <0>         0.1137
     35 H16         9.8976    2.2022   -3.8718 H         1 <0>         0.1124
     36 H17         8.1994    3.3133   -5.2659 H         1 <0>         0.1137
     37 H18         5.0903    3.7086   -4.7402 H         1 <0>         0.0618
     38 H19         6.0016    3.2573   -6.2010 H         1 <0>         0.0586
     39 H20         4.7559    2.1620   -5.5553 H         1 <0>         0.0784
@<TRIPOS>BOND
     1    1    2 1
     2    1   22 1
     3    1   23 1
     4    1   24 1
     5    2    3 1
     6    2   25 1
     7    2   26 1
     8    3    4 1
     9    3    5 1
    10    3    6 1
    11    5   27 1
    12    5   28 1
    13    5   29 1
    14    6    7 am
    15    6   30 1
    16    7    8 2
    17    7    9 1
    18    9   10 1
    19    9   31 1
    20    9   32 1
    21   10   11 1
    22   10   12 1
    23   10   19 1
    24   12   17 ar
    25   12   13 ar
    26   13   14 ar
    27   13   33 1
    28   14   15 ar
    29   14   34 1
    30   15   16 ar
    31   15   35 1
    32   16   17 ar
    33   16   36 1
    34   17   18 1
    35   18   37 1
    36   18   38 1
    37   18   39 1
    38   19   20 2
    39   19   21 1
@<TRIPOS>MOLECULE
ZINC12881562
   39    40     0     0     0
SMALL
USER_CHARGES
ethyl N-[4-[2-[(4-bromo-2-methyl-phenyl)amino]-2-oxo-ethyl]thiazol-2-yl]carbamate
@<TRIPOS>ATOM
      1 C1         -0.1434   -8.9575    3.9673 C.3       1 <0>        -0.1555
      2 C2          0.7659   -8.3792    2.8811 C.3       1 <0>         0.0807
      3 O1          0.8295   -6.9354    3.0212 O.3       1 <0>        -0.3544
      4 C3          1.5939   -6.2684    2.1359 C.2       1 <0>         0.6576
      5 O2          2.1914   -6.8762    1.2700 O.2       1 <0>        -0.5348
      6 N1          1.6962   -4.9266    2.2103 N.am      1 <0>        -0.5888
      7 C4          2.4854   -4.2380    1.2963 C.2       1 <0>         0.2988
      8 N2          2.7138   -2.9421    1.2097 N.2       1 <0>        -0.5183
      9 C5          3.4943   -2.4473    0.2687 C.2       1 <0>         0.0954
     10 C6          4.0714   -3.3041   -0.6085 C.2       1 <0>        -0.2560
     11 S1          3.4296   -4.8643   -0.0197 S.3       1 <0>         0.1739
     12 C7          3.7436   -0.9640    0.1749 C.3       1 <0>        -0.0647
     13 C8          2.4263   -0.2384    0.0783 C.2       1 <0>         0.5174
     14 O3          1.3873   -0.8641    0.0851 O.2       1 <0>        -0.4939
     15 N3          2.4027    1.1059   -0.0155 N.am      1 <0>        -0.6762
     16 C9          1.1798    1.7864   -0.0102 C.ar      1 <0>         0.1634
     17 C10         0.0636    1.2159   -0.6083 C.ar      1 <0>        -0.1124
     18 C11        -1.1403    1.8923   -0.6071 C.ar      1 <0>        -0.0773
     19 C12        -1.2379    3.1326   -0.0011 C.ar      1 <0>        -0.1023
     20 C13        -0.1279    3.7030    0.5957 C.ar      1 <0>        -0.0734
     21 C14         1.0803    3.0334    0.5924 C.ar      1 <0>        -0.1075
     22 C15         2.2891    3.6554    1.2427 C.3       1 <0>        -0.1153
     23 Br1        -2.8900    4.0526    0.0048 Br        1 <0>        -0.0507
     24 H1         -0.1911  -10.0414    3.8621 H         1 <0>         0.0881
     25 H2          0.2574   -8.7050    4.9490 H         1 <0>         0.0694
     26 H3         -1.1442   -8.5380    3.8646 H         1 <0>         0.0696
     27 H4          0.3651   -8.6317    1.8994 H         1 <0>         0.0779
     28 H5          1.7667   -8.7987    2.9838 H         1 <0>         0.0779
     29 H6          1.2191   -4.4414    2.9016 H         1 <0>         0.4328
     30 H7          4.7355   -3.1002   -1.4354 H         1 <0>         0.1991
     31 H8          4.3413   -0.7513   -0.7115 H         1 <0>         0.1167
     32 H9          4.2789   -0.6286    1.0632 H         1 <0>         0.1144
     33 H10         3.2334    1.6018   -0.0866 H         1 <0>         0.4125
     34 H11         0.1382    0.2461   -1.0777 H         1 <0>         0.1474
     35 H12        -2.0073    1.4512   -1.0762 H         1 <0>         0.1351
     36 H13        -0.2058    4.6729    1.0643 H         1 <0>         0.1363
     37 H14         2.8279    4.2553    0.5093 H         1 <0>         0.0751
     38 H15         1.9705    4.2912    2.0688 H         1 <0>         0.0746
     39 H16         2.9432    2.8695    1.6204 H         1 <0>         0.0672
@<TRIPOS>BOND
     1    1    2 1
     2    1   24 1
     3    1   25 1
     4    1   26 1
     5    2    3 1
     6    2   27 1
     7    2   28 1
     8    3    4 1
     9    4    5 2
    10    4    6 am
    11    6    7 1
    12    6   29 1
    13    7   11 1
    14    7    8 2
    15    8    9 1
    16    9   10 2
    17    9   12 1
    18   10   11 1
    19   10   30 1
    20   12   13 1
    21   12   31 1
    22   12   32 1
    23   13   14 2
    24   13   15 am
    25   15   16 1
    26   15   33 1
    27   16   21 ar
    28   16   17 ar
    29   17   18 ar
    30   17   34 1
    31   18   19 ar
    32   18   35 1
    33   19   20 ar
    34   19   23 1
    35   20   21 ar
    36   20   36 1
    37   21   22 1
    38   22   37 1
    39   22   38 1
    40   22   39 1
@<TRIPOS>MOLECULE
ZINC06250871
   40    42     0     0     0
SMALL
USER_CHARGES
1-[N-(benzenesulfonyl)-C-phenyl-carbonimidoyl]-3-thiazol-2-yl-thiourea
@<TRIPOS>ATOM
      1 C1         -1.1518    1.9788    1.1619 C.ar      1 <0>        -0.0673
      2 C2         -0.1277    1.2548    0.5779 C.ar      1 <0>        -0.1497
      3 C3          1.0406    1.8861    0.2030 C.ar      1 <0>        -0.0265
      4 C4          1.1901    3.2559    0.4191 C.ar      1 <0>        -0.0912
      5 C5          0.1562    3.9792    1.0136 C.ar      1 <0>         0.0026
      6 C6         -1.0072    3.3366    1.3842 C.ar      1 <0>        -0.1451
      7 C7          2.4412    3.9391    0.0196 C.2       1 <0>         0.6127
      8 N1          3.5146    3.2434   -0.2202 N.2       1 <0>        -0.9466
      9 S1          4.9441    4.0127   -0.5473 S.o2      1 <0>         2.6127
     10 O1          4.7339    4.7757   -1.7275 O.2       1 <0>        -0.9661
     11 O2          5.3777    4.5996    0.6721 O.2       1 <0>        -0.9693
     12 C8          6.1237    2.7690   -0.9550 C.ar      1 <0>        -0.6384
     13 C9          6.8998    2.2005    0.0376 C.ar      1 <0>        -0.0176
     14 C10         7.8215    1.2210   -0.2815 C.ar      1 <0>        -0.1390
     15 C11         7.9748    0.8177   -1.5948 C.ar      1 <0>        -0.0598
     16 C12         7.2027    1.3903   -2.5883 C.ar      1 <0>        -0.1391
     17 C13         6.2770    2.3658   -2.2683 C.ar      1 <0>        -0.0180
     18 N2          2.4693    5.3165   -0.0986 N.pl3     1 <0>        -0.6782
     19 C14         1.3972    5.9731   -0.5845 C.2       1 <0>         0.5393
     20 S2          0.0621    5.0954   -1.1993 S.2       1 <0>        -0.6073
     21 N3          1.3763    7.3207   -0.5863 N.2       1 <0>        -0.5443
     22 C15         0.2713    7.9976   -1.0871 C.2       1 <0>         0.3317
     23 N4         -0.8383    7.5053   -1.6031 N.pl3     1 <0>        -0.5487
     24 C16        -1.8019    8.2969   -2.0323 C.2       1 <0>         0.0356
     25 C17        -1.6243    9.6375   -1.9435 C.2       1 <0>        -0.2219
     26 S3         -0.0004    9.7089   -1.2014 S.3       1 <0>         0.2302
     27 H1         -2.0661    1.4811    1.4496 H         1 <0>         0.1249
     28 H2         -0.2447    0.1942    0.4110 H         1 <0>         0.1289
     29 H3          1.8374    1.3207   -0.2573 H         1 <0>         0.1380
     30 H4          0.2660    5.0401    1.1832 H         1 <0>         0.1101
     31 H5         -1.8085    3.8956    1.8446 H         1 <0>         0.1248
     32 H6          6.7832    2.5187    1.0631 H         1 <0>         0.1417
     33 H7          8.4245    0.7734    0.4947 H         1 <0>         0.1369
     34 H8          8.6976    0.0551   -1.8447 H         1 <0>         0.1346
     35 H9          7.3225    1.0753   -3.6143 H         1 <0>         0.1363
     36 H10         5.6737    2.8131   -3.0445 H         1 <0>         0.1402
     37 H11         3.3666    5.8763    0.2039 H         1 <0>         0.4485
     38 H12        -2.7095    7.8863   -2.4495 H         1 <0>         0.1929
     39 H13        -2.2824   10.4410   -2.2398 H         1 <0>         0.2179
     40 H14        -0.9725    6.4163   -1.6815 H         1 <0>         0.4334
@<TRIPOS>BOND
     1    1    6 ar
     2    1    2 ar
     3    1   27 1
     4    2    3 ar
     5    2   28 1
     6    3    4 ar
     7    3   29 1
     8    4    5 ar
     9    4    7 1
    10    5    6 ar
    11    5   30 1
    12    6   31 1
    13    7    8 2
    14    7   18 1
    15    8    9 1
    16    9   10 2
    17    9   11 2
    18    9   12 1
    19   12   17 ar
    20   12   13 ar
    21   13   14 ar
    22   13   32 1
    23   14   15 ar
    24   14   33 1
    25   15   16 ar
    26   15   34 1
    27   16   17 ar
    28   16   35 1
    29   17   36 1
    30   18   19 1
    31   18   37 1
    32   19   20 2
    33   19   21 1
    34   21   22 2
    35   22   26 1
    36   22   23 1
    37   23   24 1
    38   23   40 1
    39   24   25 2
    40   24   38 1
    41   25   26 1
    42   25   39 1
@<TRIPOS>MOLECULE
ZINC48874403
   52    55     0     0     0
SMALL
USER_CHARGES

@<TRIPOS>ATOM
      1 C1         -0.1562    1.1221   -0.2449 C.3       1 <0>        -0.1604
      2 C2         -0.0549   -0.3967   -0.0908 C.3       1 <0>         0.1808
      3 H1          0.5435   -0.6336    0.7889 H         1 <0>         0.1081
      4 C3         -1.4358   -0.9786    0.0694 C.ar      1 <0>        -0.0844
      5 C4         -2.1208   -1.4246   -1.0192 C.ar      1 <0>        -0.1079
      6 C5         -3.3983   -1.9656   -0.8907 C.ar      1 <0>        -0.1122
      7 C6         -3.9988   -2.0634    0.3270 C.ar      1 <0>        -0.0999
      8 C7         -3.3228   -1.6134    1.4736 C.ar      1 <0>        -0.0493
      9 C8         -2.0206   -1.0688    1.3437 C.ar      1 <0>        -0.0384
     10 C9         -1.3422   -0.6241    2.4914 C.ar      1 <0>        -0.1131
     11 C10        -1.9403   -0.7274    3.7095 C.ar      1 <0>        -0.1093
     12 C11        -3.2181   -1.2689    3.8380 C.ar      1 <0>        -0.1145
     13 C12        -3.9106   -1.6974    2.7475 C.ar      1 <0>        -0.1041
     14 N1          0.5803   -0.9671   -1.2814 N.am      1 <0>        -0.6932
     15 C13         1.9216   -1.0850   -1.3386 C.2       1 <0>         0.5138
     16 O1          2.6033   -0.7187   -0.4037 O.2       1 <0>        -0.5120
     17 C14         2.5692   -1.6664   -2.5523 C.2       1 <0>         0.5079
     18 O2          1.8874   -2.0328   -3.4873 O.2       1 <0>        -0.4955
     19 N2          3.9105   -1.7843   -2.6095 N.am      1 <0>        -0.6426
     20 C15         4.5236   -2.2267   -3.7845 C.ar      1 <0>         0.1347
     21 C16         5.6806   -2.9935   -3.7202 C.ar      1 <0>        -0.1264
     22 C17         6.2838   -3.4290   -4.8834 C.ar      1 <0>        -0.1008
     23 C18         5.7376   -3.1028   -6.1116 C.ar      1 <0>        -0.0914
     24 C19         4.5866   -2.3396   -6.1792 C.ar      1 <0>        -0.0927
     25 C20         3.9746   -1.9059   -5.0195 C.ar      1 <0>        -0.0981
     26 C21         3.9958   -1.9860   -7.5197 C.3       1 <0>         0.1768
     27 N3          3.0399   -3.0213   -7.9205 N.pl3     1 <0>        -0.3690
     28 C22         1.7506   -2.8209   -8.2650 C.2       1 <0>         0.0545
     29 C23         1.2124   -4.0252   -8.5670 C.2       1 <0>        -0.2735
     30 C24         2.2069   -4.9947   -8.4013 C.2       1 <0>         0.0430
     31 N4          3.3044   -4.3933   -8.0197 N.2       1 <0>        -0.2890
     32 H2          0.8426    1.5430   -0.3607 H         1 <0>         0.0681
     33 H3         -0.7545    1.3590   -1.1246 H         1 <0>         0.0644
     34 H4         -0.6287    1.5464    0.6410 H         1 <0>         0.0756
     35 H5         -1.6673   -1.3579   -1.9971 H         1 <0>         0.1209
     36 H6         -3.9201   -2.3122   -1.7705 H         1 <0>         0.1277
     37 H7         -4.9899   -2.4843    0.4113 H         1 <0>         0.1301
     38 H8         -0.3512   -0.2030    2.4072 H         1 <0>         0.1290
     39 H9         -1.4167   -0.3850    4.5898 H         1 <0>         0.1256
     40 H10        -3.6699   -1.3397    4.8164 H         1 <0>         0.1252
     41 H11        -4.9003   -2.1141    2.8623 H         1 <0>         0.1291
     42 H12         0.0354   -1.2599   -2.0286 H         1 <0>         0.4128
     43 H13         4.4504   -1.5620   -1.8348 H         1 <0>         0.4244
     44 H14         6.1078   -3.2482   -2.7616 H         1 <0>         0.1308
     45 H15         7.1833   -4.0247   -4.8342 H         1 <0>         0.1328
     46 H16         6.2115   -3.4448   -7.0198 H         1 <0>         0.1286
     47 H17         3.0727   -1.3141   -5.0729 H         1 <0>         0.1337
     48 H18         3.4837   -1.0263   -7.4493 H         1 <0>         0.1043
     49 H19         4.7917   -1.9196   -8.2615 H         1 <0>         0.0958
     50 H20         1.2397   -1.8699   -8.2941 H         1 <0>         0.1716
     51 H21         0.1947   -4.2059   -8.8799 H         1 <0>         0.1463
     52 H22         2.0903   -6.0559   -8.5651 H         1 <0>         0.1814
@<TRIPOS>BOND
     1    1    2 1
     2    1   32 1
     3    1   33 1
     4    1   34 1
     5    2    3 1
     6    2    4 1
     7    2   14 1
     8    4    9 ar
     9    4    5 ar
    10    5    6 ar
    11    5   35 1
    12    6    7 ar
    13    6   36 1
    14    7    8 ar
    15    7   37 1
    16    8   13 ar
    17    8    9 ar
    18    9   10 ar
    19   10   11 ar
    20   10   38 1
    21   11   12 ar
    22   11   39 1
    23   12   13 ar
    24   12   40 1
    25   13   41 1
    26   14   15 am
    27   14   42 1
    28   15   16 2
    29   15   17 1
    30   17   18 2
    31   17   19 am
    32   19   20 1
    33   19   43 1
    34   20   25 ar
    35   20   21 ar
    36   21   22 ar
    37   21   44 1
    38   22   23 ar
    39   22   45 1
    40   23   24 ar
    41   23   46 1
    42   24   25 ar
    43   24   26 1
    44   25   47 1
    45   26   27 1
    46   26   48 1
    47   26   49 1
    48   27   31 1
    49   27   28 1
    50   28   29 2
    51   28   50 1
    52   29   30 1
    53   29   51 1
    54   30   31 2
    55   30   52 1
@<TRIPOS>MOLECULE
ZINC14160295
   56    58     0     0     0
SMALL
USER_CHARGES

@<TRIPOS>ATOM
      1 C1         -3.7441    2.2609    2.3350 C.3       1 <0>        -0.1183
      2 C2         -4.0024    0.8589    1.8463 C.ar      1 <0>        -0.0738
      3 C3         -5.1566    0.5734    1.1433 C.ar      1 <0>        -0.1186
      4 C4         -5.3945   -0.7127    0.6950 C.ar      1 <0>        -0.0994
      5 C5         -4.4783   -1.7173    0.9487 C.ar      1 <0>        -0.1195
      6 C6         -3.3223   -1.4384    1.6506 C.ar      1 <0>        -0.0592
      7 C7         -3.0776   -0.1461    2.0974 C.ar      1 <0>         0.1174
      8 N1         -1.9050    0.1409    2.8040 N.pl3     1 <0>        -0.6235
      9 C8         -1.6757   -0.4455    3.9956 C.2       1 <0>         0.5462
     10 S1         -2.7118   -1.6904    4.5506 S.2       1 <0>        -0.5772
     11 N2         -0.6308   -0.0519    4.7504 N.pl3     1 <0>        -0.6373
     12 C9         -0.3222   -0.7314    5.9048 C.2       1 <0>         0.6917
     13 N3         -0.1341   -0.0707    7.0267 N.2       1 <0>        -0.5588
     14 C10        -0.2513    1.2855    7.0457 C.ar      1 <0>         0.5379
     15 N4         -0.4800    1.9348    5.9074 N.ar      1 <0>        -0.6014
     16 C11        -0.5991    3.2511    5.8938 C.ar      1 <0>         0.1980
     17 C12        -0.4830    3.9545    7.0834 C.ar      1 <0>        -0.2699
     18 C13        -0.2445    3.2486    8.2530 C.ar      1 <0>         0.2087
     19 N5         -0.1401    1.9319    8.2031 N.ar      1 <0>        -0.5150
     20 C14        -0.1112    3.9742    9.5671 C.3       1 <0>        -0.1075
     21 C15        -0.8576    3.9795    4.6001 C.3       1 <0>        -0.1073
     22 N6         -0.2107   -2.0954    5.8870 N.pl3     1 <0>        -0.5384
     23 C16        -0.2995   -2.8373    4.6220 C.3       1 <0>         0.1219
     24 C17         0.9384   -3.7294    4.4856 C.3       1 <0>        -0.1397
     25 C18         1.0625   -4.6160    5.7268 C.3       1 <0>        -0.1163
     26 C19         1.2346   -3.7376    6.9681 C.3       1 <0>        -0.1059
     27 H1          2.1212   -3.1141    6.8526 H         1 <0>         0.0744
     28 C20         0.0062   -2.8450    7.1319 C.3       1 <0>         0.1270
     29 C21         1.3923   -4.6254    8.2042 C.3       1 <0>        -0.1451
     30 H2         -3.2036    2.8185    1.5702 H         1 <0>         0.0732
     31 H3         -4.6938    2.7544    2.5415 H         1 <0>         0.0731
     32 H4         -3.1481    2.2237    3.2469 H         1 <0>         0.0619
     33 H5         -5.8741    1.3555    0.9439 H         1 <0>         0.1276
     34 H6         -6.2979   -0.9335    0.1458 H         1 <0>         0.1267
     35 H7         -4.6675   -2.7211    0.5978 H         1 <0>         0.1290
     36 H8         -2.6075   -2.2234    1.8487 H         1 <0>         0.1295
     37 H9         -1.2569    0.7620    2.4364 H         1 <0>         0.4061
     38 H10        -0.5760    5.0303    7.0985 H         1 <0>         0.1429
     39 H11        -1.0914    4.0595   10.0362 H         1 <0>         0.0867
     40 H12         0.5583    3.4178   10.2231 H         1 <0>         0.0841
     41 H13         0.2960    4.9701    9.3925 H         1 <0>         0.0815
     42 H14        -1.9324    4.0651    4.4399 H         1 <0>         0.0846
     43 H15        -0.4172    4.9753    4.6495 H         1 <0>         0.0842
     44 H16        -0.4103    3.4249    3.7753 H         1 <0>         0.0729
     45 H17        -1.1971   -3.4556    4.6232 H         1 <0>         0.1080
     46 H18        -0.3378   -2.1356    3.7887 H         1 <0>         0.0641
     47 H19         0.8393   -4.3561    3.5993 H         1 <0>         0.0802
     48 H20         1.8277   -3.1060    4.3934 H         1 <0>         0.0628
     49 H21         0.1622   -5.2213    5.8323 H         1 <0>         0.0693
     50 H22         1.9287   -5.2692    5.6213 H         1 <0>         0.0681
     51 H23         0.1695   -2.1484    7.9542 H         1 <0>         0.1081
     52 H24        -0.8660   -3.4640    7.3424 H         1 <0>         0.0780
     53 H25         2.2694   -5.2615    8.0851 H         1 <0>         0.0599
     54 H26         1.5148   -3.9993    9.0880 H         1 <0>         0.0607
     55 H27         0.5050   -5.2479    8.3200 H         1 <0>         0.0589
     56 H28        -0.0965    0.7108    4.4790 H         1 <0>         0.4271
@<TRIPOS>BOND
     1    1    2 1
     2    1   30 1
     3    1   31 1
     4    1   32 1
     5    2    7 ar
     6    2    3 ar
     7    3    4 ar
     8    3   33 1
     9    4    5 ar
    10    4   34 1
    11    5    6 ar
    12    5   35 1
    13    6    7 ar
    14    6   36 1
    15    7    8 1
    16    8    9 1
    17    8   37 1
    18    9   10 2
    19    9   11 1
    20   11   12 1
    21   11   56 1
    22   12   13 2
    23   12   22 1
    24   13   14 1
    25   14   19 ar
    26   14   15 ar
    27   15   16 ar
    28   16   17 ar
    29   16   21 1
    30   17   18 ar
    31   17   38 1
    32   18   19 ar
    33   18   20 1
    34   20   39 1
    35   20   40 1
    36   20   41 1
    37   21   42 1
    38   21   43 1
    39   21   44 1
    40   22   28 1
    41   22   23 1
    42   23   24 1
    43   23   45 1
    44   23   46 1
    45   24   25 1
    46   24   47 1
    47   24   48 1
    48   25   26 1
    49   25   49 1
    50   25   50 1
    51   26   27 1
    52   26   28 1
    53   26   29 1
    54   28   51 1
    55   28   52 1
    56   29   53 1
    57   29   54 1
    58   29   55 1
@<TRIPOS>MOLECULE
ZINC66334778
   56    59     0     0     0
SMALL
USER_CHARGES

@<TRIPOS>ATOM
      1 C1         -0.0187    1.5258    0.0104 C.3       1 <0>        -0.1596
      2 C2          0.0021   -0.0041    0.0020 C.3       1 <0>         0.2034
      3 H1          0.5293   -0.3651    0.8851 H         1 <0>         0.0996
      4 C3          0.7074   -0.4901   -1.2379 C.ar      1 <0>        -0.0790
      5 C4          0.0354   -0.5207   -2.4460 C.ar      1 <0>        -0.1052
      6 C5          0.6760   -0.9641   -3.5889 C.ar      1 <0>        -0.0987
      7 C6          1.9945   -1.3795   -3.5230 C.ar      1 <0>         0.0789
      8 C7          2.6716   -1.3497   -2.3049 C.ar      1 <0>         0.1005
      9 C8          2.0266   -0.8987   -1.1651 C.ar      1 <0>        -0.1091
     10 N1          4.0064   -1.7756   -2.2516 N.am      1 <0>        -0.6605
     11 C9          4.6995   -1.9025   -3.4041 C.2       1 <0>         0.4905
     12 O1          5.8455   -2.2994   -3.3850 O.2       1 <0>        -0.5057
     13 C10         4.0426   -1.5491   -4.7143 C.3       1 <0>         0.0502
     14 O2          2.6402   -1.8176   -4.6366 O.3       1 <0>        -0.3004
     15 N2         -1.3723   -0.5112    0.0124 N.am      1 <0>        -0.7403
     16 C11        -2.0286   -0.6552    1.1807 C.2       1 <0>         0.7120
     17 O3         -1.4800   -0.3643    2.2261 O.2       1 <0>        -0.5845
     18 N3         -3.2931   -1.1217    1.1903 N.am      1 <0>        -0.6201
     19 C12        -4.0065   -1.2783    2.4602 C.3       1 <0>         0.1726
     20 C13        -4.7421   -0.0034    2.7837 C.ar      1 <0>        -0.1094
     21 C14        -4.1172    0.9882    3.5165 C.ar      1 <0>        -0.0923
     22 C15        -4.7920    2.1576    3.8132 C.ar      1 <0>        -0.1241
     23 C16        -6.0915    2.3356    3.3767 C.ar      1 <0>        -0.1161
     24 C17        -6.7160    1.3443    2.6430 C.ar      1 <0>        -0.1254
     25 C18        -6.0398    0.1767    2.3427 C.ar      1 <0>        -0.1077
     26 C19        -3.9541   -1.4722   -0.0692 C.3       1 <0>         0.1186
     27 C20        -3.6857   -2.9431   -0.3940 C.3       1 <0>        -0.1318
     28 C21        -2.3862   -3.1724   -1.1837 C.3       1 <0>        -0.1354
     29 C22        -3.1596   -4.2218   -1.9993 C.3       1 <0>        -0.1411
     30 C23        -4.4374   -3.4465   -1.6375 C.3       1 <0>        -0.1340
     31 H2          1.0039    1.9031    0.0027 H         1 <0>         0.0680
     32 H3         -0.5459    1.8868   -0.8726 H         1 <0>         0.0585
     33 H4         -0.5289    1.8773    0.9072 H         1 <0>         0.0682
     34 H5         -0.9936   -0.1968   -2.4975 H         1 <0>         0.1294
     35 H6          0.1482   -0.9865   -4.5308 H         1 <0>         0.1429
     36 H7          2.5512   -0.8697   -0.2216 H         1 <0>         0.1376
     37 H8          4.4258   -1.9759   -1.4002 H         1 <0>         0.4179
     38 H9          4.1984   -0.4910   -4.9245 H         1 <0>         0.1025
     39 H10         4.4826   -2.1459   -5.5133 H         1 <0>         0.1484
     40 H11        -1.8100   -0.7432   -0.8215 H         1 <0>         0.3948
     41 H12        -4.7197   -2.0984    2.3776 H         1 <0>         0.0850
     42 H13        -3.2919   -1.4968    3.2538 H         1 <0>         0.0939
     43 H14        -3.1020    0.8492    3.8576 H         1 <0>         0.1288
     44 H15        -4.3041    2.9321    4.3864 H         1 <0>         0.1209
     45 H16        -6.6189    3.2489    3.6091 H         1 <0>         0.1203
     46 H17        -7.7314    1.4832    2.3022 H         1 <0>         0.1208
     47 H18        -6.5264   -0.5962    1.7663 H         1 <0>         0.1187
     48 H19        -5.0278   -1.3114    0.0269 H         1 <0>         0.0844
     49 H20        -3.5633   -0.8459   -0.8712 H         1 <0>         0.0714
     50 H21        -3.7916   -3.5942    0.4737 H         1 <0>         0.0962
     51 H22        -2.0729   -2.3082   -1.7694 H         1 <0>         0.0763
     52 H23        -1.5793   -3.5934   -0.5839 H         1 <0>         0.0671
     53 H24        -2.9262   -4.2063   -3.0639 H         1 <0>         0.0691
     54 H25        -3.1206   -5.2233   -1.5709 H         1 <0>         0.0801
     55 H26        -5.2866   -4.0888   -1.4040 H         1 <0>         0.0697
     56 H27        -4.6850   -2.6572   -2.3473 H         1 <0>         0.0827
@<TRIPOS>BOND
     1    1    2 1
     2    1   31 1
     3    1   32 1
     4    1   33 1
     5    2    3 1
     6    2    4 1
     7    2   15 1
     8    4    9 ar
     9    4    5 ar
    10    5    6 ar
    11    5   34 1
    12    6    7 ar
    13    6   35 1
    14    7   14 1
    15    7    8 ar
    16    8    9 ar
    17    8   10 1
    18    9   36 1
    19   10   11 am
    20   10   37 1
    21   11   12 2
    22   11   13 1
    23   13   14 1
    24   13   38 1
    25   13   39 1
    26   15   16 am
    27   15   40 1
    28   16   17 2
    29   16   18 am
    30   18   19 1
    31   18   26 1
    32   19   20 1
    33   19   41 1
    34   19   42 1
    35   20   25 ar
    36   20   21 ar
    37   21   22 ar
    38   21   43 1
    39   22   23 ar
    40   22   44 1
    41   23   24 ar
    42   23   45 1
    43   24   25 ar
    44   24   46 1
    45   25   47 1
    46   26   27 1
    47   26   48 1
    48   26   49 1
    49   27   30 1
    50   27   28 1
    51   27   50 1
    52   28   29 1
    53   28   51 1
    54   28   52 1
    55   29   30 1
    56   29   53 1
    57   29   54 1
    58   30   55 1
    59   30   56 1
@<TRIPOS>MOLECULE
ZINC09465913
   57    60     0     0     0
SMALL
USER_CHARGES
2-[4-[4-(difluoromethoxy)phenyl]-4-methyl-2,5-dioxo-imidazolidin-1-yl]-N-[1-(2,5-dioxabicyclo[4.4.0]deca-7,9,11-trien-8-yl)ethyl]acetamide
@<TRIPOS>ATOM
      1 C1          4.0476   -1.1959    1.3662 C.3       1 <0>        -0.1588
      2 C2          3.7093   -0.7173   -0.0471 C.3       1 <0>         0.1904
      3 H1          4.4962   -0.0527   -0.4038 H         1 <0>         0.0993
      4 C3          2.3972    0.0237   -0.0259 C.ar      1 <0>        -0.0896
      5 C4          1.2073   -0.6801   -0.0161 C.ar      1 <0>        -0.1098
      6 C5          0.0021   -0.0041    0.0020 C.ar      1 <0>        -0.1072
      7 C6         -0.0167    1.3828    0.0096 C.ar      1 <0>         0.0526
      8 C7          1.1794    2.0902    0.0020 C.ar      1 <0>         0.0564
      9 C8          2.3856    1.4056   -0.0168 C.ar      1 <0>        -0.0993
     10 O1          1.1838    3.4512    0.0176 O.3       1 <0>        -0.3059
     11 C9         -0.0397    4.1029   -0.3403 C.3       1 <0>         0.0198
     12 C10        -1.1886    3.4131    0.4076 C.3       1 <0>         0.0198
     13 O2         -1.2115    2.0347    0.0189 O.3       1 <0>        -0.3064
     14 N1          3.6032   -1.8726   -0.9416 N.am      1 <0>        -0.7203
     15 C11         4.7096   -2.3822   -1.5184 C.2       1 <0>         0.5032
     16 O3          5.7931   -1.8843   -1.2968 O.2       1 <0>        -0.5203
     17 C12         4.6005   -3.5707   -2.4385 C.3       1 <0>         0.0979
     18 N2          5.9322   -3.9299   -2.9323 N.am      1 <0>        -0.5595
     19 C13         6.7576   -4.8007   -2.3187 C.2       1 <0>         0.5421
     20 O4          6.5469   -5.4106   -1.2924 O.2       1 <0>        -0.4554
     21 C14         8.0048   -4.8584   -3.1784 C.3       1 <0>         0.1735
     22 N3          7.7095   -3.9259   -4.2799 N.am      1 <0>        -0.7153
     23 C15         6.4767   -3.4382   -4.0511 C.2       1 <0>         0.7120
     24 O5          5.9212   -2.6380   -4.7778 O.2       1 <0>        -0.5342
     25 C16         8.2232   -6.2742   -3.7157 C.3       1 <0>        -0.1449
     26 C17         9.2080   -4.3942   -2.3988 C.ar      1 <0>        -0.1212
     27 C18         9.2552   -4.5763   -1.0290 C.ar      1 <0>        -0.0645
     28 C19        10.3595   -4.1567   -0.3129 C.ar      1 <0>        -0.1834
     29 C20        11.4166   -3.5415   -0.9677 C.ar      1 <0>         0.1166
     30 C21        11.3644   -3.3548   -2.3414 C.ar      1 <0>        -0.1322
     31 C22        10.2605   -3.7817   -3.0538 C.ar      1 <0>        -0.0602
     32 O6         12.5013   -3.1221   -0.2645 O.3       1 <0>        -0.3191
     33 C23        12.4865   -3.3472    1.1465 C.3       1 <0>         0.4111
     34 F1         11.3922   -2.6847    1.7130 F         1 <0>        -0.1962
     35 F2         12.3826   -4.7193    1.3988 F         1 <0>        -0.1968
     36 H2          4.1265   -0.3363    2.0317 H         1 <0>         0.0703
     37 H3          3.2607   -1.8605    1.7228 H         1 <0>         0.0618
     38 H4          4.9966   -1.7319    1.3509 H         1 <0>         0.0662
     39 H5          1.2196   -1.7600   -0.0222 H         1 <0>         0.1317
     40 H6         -0.9261   -0.5562    0.0099 H         1 <0>         0.1382
     41 H7          3.3165    1.9530   -0.0250 H         1 <0>         0.1378
     42 H8          0.0064    5.1538   -0.0546 H         1 <0>         0.1246
     43 H9         -0.1988    4.0211   -1.4156 H         1 <0>         0.0794
     44 H10        -1.0263    3.4907    1.4827 H         1 <0>         0.0795
     45 H11        -2.1350    3.8848    0.1432 H         1 <0>         0.1245
     46 H12         2.7366   -2.2709   -1.1188 H         1 <0>         0.4022
     47 H13         4.1752   -4.4138   -1.8941 H         1 <0>         0.1288
     48 H14         3.9560   -3.3199   -3.2811 H         1 <0>         0.1312
     49 H15         8.2896   -3.7081   -5.0262 H         1 <0>         0.4412
     50 H16         7.3593   -6.5752   -4.3082 H         1 <0>         0.0741
     51 H17         9.1163   -6.2920   -4.3404 H         1 <0>         0.0847
     52 H18         8.3497   -6.9640   -2.8812 H         1 <0>         0.0879
     53 H19         8.4298   -5.0506   -0.5191 H         1 <0>         0.1452
     54 H20        10.3977   -4.3028    0.7565 H         1 <0>         0.1379
     55 H21        12.1859   -2.8759   -2.8534 H         1 <0>         0.1406
     56 H22        10.2193   -3.6366   -4.1232 H         1 <0>         0.1333
     57 H23        13.4087   -2.9659    1.5850 H         1 <0>         0.1845
@<TRIPOS>BOND
     1    1    2 1
     2    1   36 1
     3    1   37 1
     4    1   38 1
     5    2    3 1
     6    2    4 1
     7    2   14 1
     8    4    9 ar
     9    4    5 ar
    10    5    6 ar
    11    5   39 1
    12    6    7 ar
    13    6   40 1
    14    7   13 1
    15    7    8 ar
    16    8    9 ar
    17    8   10 1
    18    9   41 1
    19   10   11 1
    20   11   12 1
    21   11   42 1
    22   11   43 1
    23   12   13 1
    24   12   44 1
    25   12   45 1
    26   14   15 am
    27   14   46 1
    28   15   16 2
    29   15   17 1
    30   17   18 1
    31   17   47 1
    32   17   48 1
    33   18   23 am
    34   18   19 am
    35   19   20 2
    36   19   21 1
    37   21   22 1
    38   21   25 1
    39   21   26 1
    40   22   23 am
    41   22   49 1
    42   23   24 2
    43   25   50 1
    44   25   51 1
    45   25   52 1
    46   26   31 ar
    47   26   27 ar
    48   27   28 ar
    49   27   53 1
    50   28   29 ar
    51   28   54 1
    52   29   30 ar
    53   29   32 1
    54   30   31 ar
    55   30   55 1
    56   31   56 1
    57   32   33 1
    58   33   34 1
    59   33   35 1
    60   33   57 1
@<TRIPOS>MOLECULE
ZINC12173123
   63    66     0     0     0
SMALL
USER_CHARGES
(4S)-2-amino-6-[(4-methoxyphenyl)methyl]-7-methyl-5-oxo-4-(2,3,4-trimethoxyphenyl)-4H-pyrano[5,6-c]pyridine-3-carbonitrile
@<TRIPOS>ATOM
      1 C1          3.6683    3.1926    1.0106 C.3       1 <0>        -0.1347
      2 C2          4.2448    2.6507   -0.2720 C.2       1 <0>         0.2016
      3 C3          4.0165    3.3024   -1.4323 C.2       1 <0>        -0.2356
      4 C4          4.5534    2.7994   -2.6355 C.2       1 <0>         0.2165
      5 C5          5.3054    1.6442   -2.5997 C.2       1 <0>        -0.2614
      6 C6          5.5211    1.0057   -1.3716 C.2       1 <0>         0.5391
      7 O1          6.1902   -0.0147   -1.3239 O.2       1 <0>        -0.5094
      8 N1          4.9876    1.5131   -0.2448 N.am      1 <0>        -0.4936
      9 C7          5.2162    0.8316    1.0317 C.3       1 <0>         0.1323
     10 C8          6.4210    1.4295    1.7116 C.ar      1 <0>        -0.1551
     11 C9          7.6899    0.9966    1.3736 C.ar      1 <0>        -0.0492
     12 C10         8.7959    1.5437    1.9947 C.ar      1 <0>        -0.1528
     13 C11         8.6326    2.5279    2.9587 C.ar      1 <0>         0.1388
     14 C12         7.3583    2.9602    3.2964 C.ar      1 <0>        -0.2127
     15 C13         6.2555    2.4099    2.6724 C.ar      1 <0>        -0.0667
     16 O2          9.7190    3.0673    3.5716 O.3       1 <0>        -0.3161
     17 C14         9.4754    4.0760    4.5541 C.3       1 <0>         0.0261
     18 C15         5.8956    1.0718   -3.8591 C.3       1 <0>         0.1169
     19 H1          6.9223    0.7597   -3.6677 H         1 <0>         0.1055
     20 C16         5.8841    2.1043   -4.9520 C.2       1 <0>        -0.2636
     21 C17         5.1147    3.2146   -4.8611 C.2       1 <0>         0.4301
     22 O3          4.3266    3.4485   -3.7971 O.3       1 <0>        -0.2373
     23 N2          5.1395    4.1279   -5.8853 N.pl3     1 <0>        -0.8298
     24 C18         6.7028    1.9100   -6.1107 C.1       1 <0>         0.2712
     25 N3          7.3523    1.7558   -7.0298 N.1       1 <0>        -0.4384
     26 C19         5.0858   -0.1230   -4.2922 C.ar      1 <0>        -0.1141
     27 C20         3.7762    0.0428   -4.7032 C.ar      1 <0>        -0.0575
     28 C21         3.0311   -1.0490   -5.1067 C.ar      1 <0>        -0.2048
     29 C22         3.5913   -2.3176   -5.0900 C.ar      1 <0>         0.1197
     30 C23         4.9054   -2.4893   -4.6722 C.ar      1 <0>         0.0402
     31 C24         5.6532   -1.3879   -4.2726 C.ar      1 <0>         0.1441
     32 O4          6.9399   -1.5507   -3.8633 O.3       1 <0>        -0.3110
     33 C25         7.9484   -1.5449   -4.8757 C.3       1 <0>         0.0387
     34 O5          5.4586   -3.7326   -4.6540 O.3       1 <0>        -0.3198
     35 C26         5.2482   -4.5192   -3.4797 C.3       1 <0>         0.0391
     36 O6          2.8556   -3.3920   -5.4824 O.3       1 <0>        -0.3056
     37 C27         1.5121   -3.1410   -5.8993 C.3       1 <0>         0.0249
     38 H2          4.4107    3.8173    1.5073 H         1 <0>         0.0964
     39 H3          2.7829    3.7881    0.7880 H         1 <0>         0.0969
     40 H4          3.3943    2.3645    1.6643 H         1 <0>         0.0868
     41 H5          3.4250    4.2060   -1.4389 H         1 <0>         0.1592
     42 H6          5.3901   -0.2292    0.8511 H         1 <0>         0.1140
     43 H7          4.3412    0.9529    1.6702 H         1 <0>         0.1017
     44 H8          7.8165    0.2304    0.6230 H         1 <0>         0.1404
     45 H9          9.7870    1.2087    1.7269 H         1 <0>         0.1334
     46 H10         7.2286    3.7265    4.0463 H         1 <0>         0.1305
     47 H11         5.2633    2.7461    2.9349 H         1 <0>         0.1278
     48 H12        10.4248    4.4207    4.9639 H         1 <0>         0.1020
     49 H13         8.9532    4.9141    4.0926 H         1 <0>         0.0564
     50 H14         8.8626    3.6626    5.3550 H         1 <0>         0.0570
     51 H15         5.7027    3.9730   -6.6597 H         1 <0>         0.4265
     52 H16         4.5938    4.9283   -5.8348 H         1 <0>         0.4117
     53 H17         3.3356    1.0288   -4.7128 H         1 <0>         0.1246
     54 H18         2.0098   -0.9147   -5.4312 H         1 <0>         0.1345
     55 H19         8.9147   -1.7754   -4.4272 H         1 <0>         0.0951
     56 H20         7.7100   -2.2945   -5.6303 H         1 <0>         0.0506
     57 H21         7.9897   -0.5605   -5.3418 H         1 <0>         0.0406
     58 H22         5.5851   -3.9632   -2.6048 H         1 <0>         0.0490
     59 H23         4.1867   -4.7458   -3.3795 H         1 <0>         0.0438
     60 H24         5.8122   -5.4485   -3.5589 H         1 <0>         0.0914
     61 H25         1.5171   -2.4622   -6.7522 H         1 <0>         0.0566
     62 H26         1.0389   -4.0803   -6.1853 H         1 <0>         0.1017
     63 H27         0.9554   -2.6889   -5.0784 H         1 <0>         0.0557
@<TRIPOS>BOND
     1    1    2 1
     2    1   38 1
     3    1   39 1
     4    1   40 1
     5    2    8 1
     6    2    3 2
     7    3    4 1
     8    3   41 1
     9    4   22 1
    10    4    5 2
    11    5    6 1
    12    5   18 1
    13    6    7 2
    14    6    8 am
    15    8    9 1
    16    9   10 1
    17    9   42 1
    18    9   43 1
    19   10   15 ar
    20   10   11 ar
    21   11   12 ar
    22   11   44 1
    23   12   13 ar
    24   12   45 1
    25   13   14 ar
    26   13   16 1
    27   14   15 ar
    28   14   46 1
    29   15   47 1
    30   16   17 1
    31   17   48 1
    32   17   49 1
    33   17   50 1
    34   18   19 1
    35   18   20 1
    36   18   26 1
    37   20   21 2
    38   20   24 1
    39   21   22 1
    40   21   23 1
    41   23   51 1
    42   23   52 1
    43   24   25 3
    44   26   31 ar
    45   26   27 ar
    46   27   28 ar
    47   27   53 1
    48   28   29 ar
    49   28   54 1
    50   29   30 ar
    51   29   36 1
    52   30   31 ar
    53   30   34 1
    54   31   32 1
    55   32   33 1
    56   33   55 1
    57   33   56 1
    58   33   57 1
    59   34   35 1
    60   35   58 1
    61   35   59 1
    62   35   60 1
    63   36   37 1
    64   37   61 1
    65   37   62 1
    66   37   63 1
@<TRIPOS>MOLECULE
ZINC20848917
   59    61     0     0     0
SMALL
USER_CHARGES
methyl (4S)-4-(3,4-dimethoxyphenyl)-6-[(2,5-dimethylphenyl)sulfonylmethyl]-2-oxo-3,4-dihydro-1H-pyrimidine-5-carboxylate
@<TRIPOS>ATOM
      1 C1         -2.3360    7.0671    0.6168 C.3       1 <0>        -0.1211
      2 C2         -1.1171    6.1813    0.6423 C.ar      1 <0>        -0.1071
      3 C3          0.1352    6.7219    0.4167 C.ar      1 <0>        -0.0573
      4 C4          1.2531    5.9095    0.4401 C.ar      1 <0>        -0.1350
      5 C5          1.1196    4.5570    0.6941 C.ar      1 <0>         0.0042
      6 C6         -0.1330    4.0156    0.9140 C.ar      1 <0>        -0.6596
      7 C7         -1.2512    4.8283    0.8906 C.ar      1 <0>        -0.0179
      8 S1         -0.3038    2.2908    1.2311 S.o2      1 <0>         2.4961
      9 O1         -1.6964    2.0961    1.4365 O.2       1 <0>        -0.9011
     10 O2          0.6266    2.0192    2.2703 O.2       1 <0>        -0.9167
     11 C8          0.2206    1.4802   -0.3046 C.3       1 <0>        -0.6074
     12 C9          0.1140   -0.0146   -0.1454 C.2       1 <0>         0.2102
     13 C10        -0.8967   -0.6765   -0.7488 C.2       1 <0>        -0.2274
     14 C11        -0.9661   -2.1787   -0.5631 C.3       1 <0>         0.2482
     15 H1         -0.7938   -2.6153   -1.5579 H         1 <0>         0.1000
     16 N1          0.0818   -2.7976    0.2661 N.am      1 <0>        -0.7273
     17 C12         1.0277   -2.0022    0.8034 C.2       1 <0>         0.7099
     18 O3          1.8969   -2.5033    1.4897 O.2       1 <0>        -0.5594
     19 N2          1.0442   -0.6785    0.6021 N.am      1 <0>        -0.6703
     20 C13        -2.3014   -2.5095    0.0524 C.ar      1 <0>        -0.1083
     21 C14        -2.4933   -2.3474    1.4119 C.ar      1 <0>        -0.0806
     22 C15        -3.7166   -2.6486    1.9811 C.ar      1 <0>        -0.1684
     23 C16        -4.7535   -3.1145    1.1888 C.ar      1 <0>         0.1119
     24 C17        -4.5601   -3.2782   -0.1795 C.ar      1 <0>         0.1020
     25 C18        -3.3333   -2.9690   -0.7446 C.ar      1 <0>        -0.1567
     26 O4         -5.5747   -3.7352   -0.9613 O.3       1 <0>        -0.3040
     27 C19        -5.3042   -3.8785   -2.3571 C.3       1 <0>         0.0218
     28 O5         -5.9576   -3.4109    1.7471 O.3       1 <0>        -0.3046
     29 C20        -6.0838   -3.2181    3.1574 C.3       1 <0>         0.0209
     30 C21        -1.8582    0.0094   -1.5274 C.2       1 <0>         0.5336
     31 O6         -1.7751    0.0025   -2.7414 O.2       1 <0>        -0.4885
     32 O7         -2.8675    0.6712   -0.9239 O.3       1 <0>        -0.3265
     33 C22        -3.8022    1.3416   -1.7718 C.3       1 <0>         0.0239
     34 C23         2.3391    3.6722    0.7257 C.3       1 <0>        -0.1560
     35 H2         -2.0321    8.1030    0.4056 H         1 <0>         0.0707
     36 H3         -2.8404    7.0248    1.5934 H         1 <0>         0.0761
     37 H4         -3.0251    6.7200   -0.1672 H         1 <0>         0.0757
     38 H5          0.2400    7.7790    0.2220 H         1 <0>         0.1343
     39 H6          2.2314    6.3317    0.2635 H         1 <0>         0.1364
     40 H7         -2.2294    4.4059    1.0668 H         1 <0>         0.1480
     41 H8         -0.4264    1.8079   -1.1316 H         1 <0>         0.1589
     42 H9          1.2634    1.7520   -0.5251 H         1 <0>         0.1680
     43 H10         0.0797   -3.8847    0.4342 H         1 <0>         0.4644
     44 H11         1.8653   -0.1229    1.0785 H         1 <0>         0.4611
     45 H12        -1.6860   -1.9843    2.0305 H         1 <0>         0.1223
     46 H13        -3.8639   -2.5210    3.0433 H         1 <0>         0.1390
     47 H14        -3.1820   -3.0908   -1.8070 H         1 <0>         0.1364
     48 H15        -6.2032   -4.2534   -2.8682 H         1 <0>         0.1038
     49 H16        -4.4778   -4.5905   -2.4992 H         1 <0>         0.0565
     50 H17        -5.0233   -2.9019   -2.7783 H         1 <0>         0.0549
     51 H18        -7.1001   -3.4936    3.4756 H         1 <0>         0.1036
     52 H19        -5.8969   -2.1619    3.4012 H         1 <0>         0.0582
     53 H20        -5.3516   -3.8504    3.6809 H         1 <0>         0.0570
     54 H21        -4.5670    1.8366   -1.1553 H         1 <0>         0.1096
     55 H22        -4.2844    0.6099   -2.4367 H         1 <0>         0.0639
     56 H23        -3.2747    2.0944   -2.3760 H         1 <0>         0.0620
     57 H24         2.0355    2.6370    0.9408 H         1 <0>         0.0647
     58 H25         3.0265    4.0232    1.5095 H         1 <0>         0.1013
     59 H26         2.8453    3.7106   -0.2501 H         1 <0>         0.0915
@<TRIPOS>BOND
     1    1    2 1
     2    1   35 1
     3    1   36 1
     4    1   37 1
     5    2    7 ar
     6    2    3 ar
     7    3    4 ar
     8    3   38 1
     9    4    5 ar
    10    4   39 1
    11    5    6 ar
    12    5   34 1
    13    6    7 ar
    14    6    8 1
    15    7   40 1
    16    8    9 2
    17    8   10 2
    18    8   11 1
    19   11   12 1
    20   11   41 1
    21   11   42 1
    22   12   19 1
    23   12   13 2
    24   13   14 1
    25   13   30 1
    26   14   15 1
    27   14   16 1
    28   14   20 1
    29   16   17 am
    30   16   43 1
    31   17   18 2
    32   17   19 am
    33   19   44 1
    34   20   25 ar
    35   20   21 ar
    36   21   22 ar
    37   21   45 1
    38   22   23 ar
    39   22   46 1
    40   23   24 ar
    41   23   28 1
    42   24   25 ar
    43   24   26 1
    44   25   47 1
    45   26   27 1
    46   27   48 1
    47   27   49 1
    48   27   50 1
    49   28   29 1
    50   29   51 1
    51   29   52 1
    52   29   53 1
    53   30   31 2
    54   30   32 1
    55   32   33 1
    56   33   54 1
    57   33   55 1
    58   33   56 1
    59   34   57 1
    60   34   58 1
    61   34   59 1
@<TRIPOS>MOLECULE
ZINC08774536
   62    64     0     0     0
SMALL
USER_CHARGES

@<TRIPOS>ATOM
      1 C1         -0.0073    1.4924    0.0039 C.3       1 <0>        -0.1265
      2 C2          0.0175   -0.0144    0.0024 C.ar      1 <0>        -0.0511
      3 C3          0.0305   -0.7045   -1.1942 C.ar      1 <0>        -0.1215
      4 C4          0.0533   -2.0869   -1.1964 C.ar      1 <0>        -0.0273
      5 C5          0.0636   -2.7833   -0.0015 C.ar      1 <0>        -0.6654
      6 C6          0.0512   -2.0993    1.1981 C.ar      1 <0>        -0.0165
      7 C7          0.0332   -0.7105    1.2037 C.ar      1 <0>         0.1215
      8 N1          0.0260   -0.0144    2.4175 N.am      1 <0>        -0.6675
      9 C8         -0.6305   -0.5200    3.4804 C.2       1 <0>         0.5129
     10 O1         -1.1459   -1.6156    3.4099 O.2       1 <0>        -0.4880
     11 C9         -0.7242    0.2760    4.7566 C.3       1 <0>         0.0543
     12 O2         -1.4632   -0.4669    5.7282 O.3       1 <0>        -0.3344
     13 C10        -1.6394    0.1089    6.9350 C.2       1 <0>         0.5419
     14 O3         -1.1776    1.2120    7.1556 O.2       1 <0>        -0.4901
     15 C11        -2.3879   -0.5954    7.9814 C.2       1 <0>        -0.0510
     16 C12        -2.6406   -0.1247    9.2356 C.2       1 <0>        -0.0135
     17 C13        -3.3880   -1.1207    9.9081 C.2       1 <0>        -0.2620
     18 C14        -3.5587   -2.1694    9.0173 C.2       1 <0>         0.1198
     19 N2         -2.9609   -1.8439    7.8620 N.pl3     1 <0>        -0.5130
     20 H1         -2.9335   -2.4004    7.0680 H         1 <0>         0.4306
     21 C15        -4.2954   -3.4538    9.2978 C.3       1 <0>        -0.1025
     22 C16        -3.8867   -1.0562   11.2853 C.2       1 <0>         0.4367
     23 O4         -3.1678   -1.3821   12.2067 O.2       1 <0>        -0.4483
     24 C17        -5.2922   -0.5849   11.5565 C.3       1 <0>        -0.1975
     25 C18        -2.2062    1.2038    9.7992 C.3       1 <0>        -0.1020
     26 S1          0.0921   -4.5450   -0.0098 S.o2      1 <0>         2.6888
     27 O5         -0.4529   -4.9659    1.2332 O.2       1 <0>        -0.9474
     28 O6         -0.4513   -4.9541   -1.2575 O.2       1 <0>        -0.9525
     29 N3          1.6818   -5.0090   -0.0110 N.pl3     1 <0>        -0.9952
     30 C19         2.4029   -5.2069   -1.2757 C.3       1 <0>         0.1183
     31 C20         3.6820   -4.3643   -1.2510 C.3       1 <0>        -0.1364
     32 C21         4.4948   -4.7145   -0.0026 C.3       1 <0>        -0.1181
     33 C22         3.6770   -4.3877    1.2490 C.3       1 <0>        -0.1365
     34 C23         2.3995   -5.2248    1.2527 C.3       1 <0>         0.1184
     35 H2          1.0142    1.8726    0.0007 H         1 <0>         0.0821
     36 H3         -0.5302    1.8480   -0.8839 H         1 <0>         0.0807
     37 H4         -0.5239    1.8463    0.8961 H         1 <0>         0.0700
     38 H5          0.0224   -0.1636   -2.1289 H         1 <0>         0.1395
     39 H6          0.0626   -2.6242   -2.1333 H         1 <0>         0.1422
     40 H7          0.0590   -2.6437    2.1308 H         1 <0>         0.1557
     41 H8          0.4935    0.8321    2.4939 H         1 <0>         0.4160
     42 H9          0.2784    0.4736    5.1360 H         1 <0>         0.1078
     43 H10        -1.2307    1.2207    4.5593 H         1 <0>         0.1079
     44 H11        -5.3601   -3.3094    9.1142 H         1 <0>         0.0901
     45 H12        -3.9173   -4.2398    8.6441 H         1 <0>         0.0796
     46 H13        -4.1418   -3.7411   10.3379 H         1 <0>         0.0893
     47 H14        -5.9559   -1.4462   11.6325 H         1 <0>         0.0980
     48 H15        -5.3139   -0.0259   12.4919 H         1 <0>         0.0892
     49 H16        -5.6234    0.0582   10.7411 H         1 <0>         0.0855
     50 H17        -2.9734    1.9517    9.5992 H         1 <0>         0.0780
     51 H18        -2.0602    1.1117   10.8754 H         1 <0>         0.0691
     52 H19        -1.2705    1.5088    9.3305 H         1 <0>         0.0870
     53 H20         2.6611   -6.2599   -1.3882 H         1 <0>         0.0777
     54 H21         1.7738   -4.8919   -2.1082 H         1 <0>         0.0908
     55 H22         4.2739   -4.5753   -2.1416 H         1 <0>         0.0771
     56 H23         3.4203   -3.3063   -1.2299 H         1 <0>         0.0666
     57 H24         4.7350   -5.7776   -0.0121 H         1 <0>         0.0664
     58 H25         5.4174   -4.1340    0.0047 H         1 <0>         0.0653
     59 H26         4.2653   -4.6155    2.1378 H         1 <0>         0.0768
     60 H27         3.4153   -3.3296    1.2466 H         1 <0>         0.0651
     61 H28         1.7682   -4.9215    2.0879 H         1 <0>         0.0898
     62 H29         2.6575   -6.2792    1.3510 H         1 <0>         0.0777
@<TRIPOS>BOND
     1    1    2 1
     2    1   35 1
     3    1   36 1
     4    1   37 1
     5    2    7 ar
     6    2    3 ar
     7    3    4 ar
     8    3   38 1
     9    4    5 ar
    10    4   39 1
    11    5    6 ar
    12    5   26 1
    13    6    7 ar
    14    6   40 1
    15    7    8 1
    16    8    9 am
    17    8   41 1
    18    9   10 2
    19    9   11 1
    20   11   12 1
    21   11   42 1
    22   11   43 1
    23   12   13 1
    24   13   14 2
    25   13   15 1
    26   15   19 1
    27   15   16 2
    28   16   17 1
    29   16   25 1
    30   17   18 2
    31   17   22 1
    32   18   19 1
    33   18   21 1
    34   19   20 1
    35   21   44 1
    36   21   45 1
    37   21   46 1
    38   22   23 2
    39   22   24 1
    40   24   47 1
    41   24   48 1
    42   24   49 1
    43   25   50 1
    44   25   51 1
    45   25   52 1
    46   26   27 2
    47   26   28 2
    48   26   29 1
    49   29   34 1
    50   29   30 1
    51   30   31 1
    52   30   53 1
    53   30   54 1
    54   31   32 1
    55   31   55 1
    56   31   56 1
    57   32   33 1
    58   32   57 1
    59   32   58 1
    60   33   34 1
    61   33   59 1
    62   33   60 1
    63   34   61 1
    64   34   62 1
@<TRIPOS>MOLECULE
ZINC60364792
   56    58     0     0     0
SMALL
USER_CHARGES

@<TRIPOS>ATOM
      1 C1         -2.4332   -0.6698   -0.8194 C.3       1 <0>        -0.1024
      2 C2         -1.0224   -1.0312   -0.4320 C.2       1 <0>         0.1875
      3 C3          0.0814   -0.8158   -1.1824 C.2       1 <0>        -0.0886
      4 C4          1.2267   -1.3189   -0.4232 C.2       1 <0>         0.5455
      5 O1          2.3930   -1.3005   -0.7732 O.2       1 <0>        -0.5070
      6 N1          0.7443   -1.8069    0.7384 N.am      1 <0>        -0.3661
      7 N2         -0.6437   -1.6273    0.7416 N.pl3     1 <0>        -0.3920
      8 C5         -1.5479   -2.0174    1.8263 C.3       1 <0>         0.0977
      9 C6          1.4998   -2.3864    1.7625 C.ar      1 <0>         0.1492
     10 C7          1.1017   -3.5930    2.3237 C.ar      1 <0>        -0.1288
     11 C8          1.8501   -4.1627    3.3350 C.ar      1 <0>        -0.1021
     12 C9          2.9946   -3.5331    3.7890 C.ar      1 <0>        -0.1174
     13 C10         3.3934   -2.3315    3.2328 C.ar      1 <0>        -0.0987
     14 C11         2.6529   -1.7596    2.2169 C.ar      1 <0>        -0.1038
     15 N3          0.1214   -0.2183   -2.4579 N.am      1 <0>        -0.6267
     16 C12         0.6419   -0.8929   -3.5021 C.2       1 <0>         0.5382
     17 O2          1.1567   -1.9775   -3.3276 O.2       1 <0>        -0.4940
     18 C13         0.5846   -0.2999   -4.8863 C.3       1 <0>        -0.1157
     19 H1         -0.3436    0.2593   -5.0038 H         1 <0>         0.1266
     20 C14         1.7751    0.6396   -5.0884 C.3       1 <0>        -0.1459
     21 S1          0.6488   -1.6307   -6.1173 S.3       1 <0>         0.1282
     22 C15         0.4251   -0.8001   -7.6551 C.2       1 <0>         0.0018
     23 N4          0.2536    0.4889   -7.9101 N.2       1 <0>        -0.2587
     24 N5          0.1062    0.9222   -9.0853 N.2       1 <0>        -0.2712
     25 C16         0.1136    0.1177  -10.1355 C.2       1 <0>         0.2808
     26 S2          0.3724   -1.4555   -9.3205 S.3       1 <0>         0.0466
     27 N6         -0.0326    0.4113  -11.4890 N.am      1 <0>        -0.6143
     28 C17        -0.2142    1.6864  -11.8863 C.2       1 <0>         0.5074
     29 O3         -0.2502    2.5782  -11.0649 O.2       1 <0>        -0.4651
     30 C18        -0.3724    2.0040  -13.3509 C.3       1 <0>        -0.1274
     31 C19        -0.5628    3.5118  -13.5280 C.3       1 <0>        -0.0816
     32 C20        -0.7210    3.8294  -14.9927 C.2       1 <0>        -0.1615
     33 C21        -1.7715    4.4919  -15.4095 C.2       1 <0>        -0.1846
     34 H2         -2.6549    0.3423   -0.4811 H         1 <0>         0.0946
     35 H3         -2.5370   -0.7217   -1.9032 H         1 <0>         0.0961
     36 H4         -3.1281   -1.3688   -0.3540 H         1 <0>         0.0835
     37 H5         -2.5580   -1.6778    1.5971 H         1 <0>         0.1061
     38 H6         -1.5441   -3.1024    1.9300 H         1 <0>         0.0751
     39 H7         -1.2144   -1.5621    2.7588 H         1 <0>         0.0787
     40 H8          0.2078   -4.0850    1.9698 H         1 <0>         0.1261
     41 H9          1.5410   -5.1007    3.7720 H         1 <0>         0.1321
     42 H10         3.5780   -3.9807    4.5800 H         1 <0>         0.1305
     43 H11         4.2873   -1.8420    3.5901 H         1 <0>         0.1339
     44 H12         2.9677   -0.8237    1.7794 H         1 <0>         0.1309
     45 H13        -0.2258    0.6786   -2.5844 H         1 <0>         0.4093
     46 H14         2.7033    0.0804   -4.9708 H         1 <0>         0.0768
     47 H15         1.7336    1.0685   -6.0896 H         1 <0>         0.0850
     48 H16         1.7365    1.4393   -4.3487 H         1 <0>         0.0764
     49 H17        -0.0038   -0.3019  -12.1459 H         1 <0>         0.4297
     50 H18         0.5193    1.6846  -13.8903 H         1 <0>         0.1050
     51 H19        -1.2427    1.4791  -13.7446 H         1 <0>         0.1046
     52 H20        -1.4545    3.8312  -12.9886 H         1 <0>         0.0777
     53 H21         0.3076    4.0367  -13.1344 H         1 <0>         0.0833
     54 H22         0.0317    3.5110  -15.6987 H         1 <0>         0.1113
     55 H23        -2.5242    4.8104  -14.7035 H         1 <0>         0.0978
     56 H24        -1.8848    4.7196  -16.4591 H         1 <0>         0.0995
@<TRIPOS>BOND
     1    1    2 1
     2    1   34 1
     3    1   35 1
     4    1   36 1
     5    2    7 1
     6    2    3 2
     7    3    4 1
     8    3   15 1
     9    4    5 2
    10    4    6 am
    11    6    7 1
    12    6    9 1
    13    7    8 1
    14    8   37 1
    15    8   38 1
    16    8   39 1
    17    9   14 ar
    18    9   10 ar
    19   10   11 ar
    20   10   40 1
    21   11   12 ar
    22   11   41 1
    23   12   13 ar
    24   12   42 1
    25   13   14 ar
    26   13   43 1
    27   14   44 1
    28   15   16 am
    29   15   45 1
    30   16   17 2
    31   16   18 1
    32   18   19 1
    33   18   20 1
    34   18   21 1
    35   20   46 1
    36   20   47 1
    37   20   48 1
    38   21   22 1
    39   22   26 1
    40   22   23 2
    41   23   24 1
    42   24   25 2
    43   25   26 1
    44   25   27 1
    45   27   28 am
    46   27   49 1
    47   28   29 2
    48   28   30 1
    49   30   31 1
    50   30   50 1
    51   30   51 1
    52   31   32 1
    53   31   52 1
    54   31   53 1
    55   32   33 2
    56   32   54 1
    57   33   55 1
    58   33   56 1
@<TRIPOS>MOLECULE
ZINC04019091
   35    37     0     0     0
SMALL
USER_CHARGES
3-[(2,5-difluorophenyl)carbamoyl]norbornane-2-carboxylic acid
@<TRIPOS>ATOM
      1 C1          1.3873    4.0939    4.2207 C.ar      1 <0>        -0.1622
      2 C2          1.3644    4.2493    2.8467 C.ar      1 <0>        -0.1133
      3 C3          0.5578    3.4373    2.0710 C.ar      1 <0>         0.0683
      4 C4         -0.2316    2.4636    2.6739 C.ar      1 <0>         0.1868
      5 C5         -0.2109    2.3137    4.0531 C.ar      1 <0>        -0.1559
      6 C6          0.6028    3.1255    4.8238 C.ar      1 <0>         0.1001
      7 F1          0.6277    2.9765    6.1663 F         1 <0>        -0.1410
      8 N1         -1.0499    1.6401    1.8908 N.am      1 <0>        -0.6473
      9 C7         -1.3717    0.4043    2.3217 C.2       1 <0>         0.5617
     10 O1         -1.0140    0.0324    3.4194 O.2       1 <0>        -0.5291
     11 C8         -2.1760   -0.5156    1.4397 C.3       1 <0>        -0.0987
     12 H1         -3.2115   -0.1795    1.3856 H         1 <0>         0.0917
     13 C9         -2.1041   -1.9794    1.9719 C.3       1 <0>        -0.0769
     14 H2         -2.7674   -2.2172    2.8036 H         1 <0>         0.0946
     15 C10        -0.5851   -2.2311    2.2181 C.3       1 <0>        -0.1316
     16 C11         0.0341   -2.2988    0.8033 C.3       1 <0>        -0.1475
     17 C12        -1.1691   -2.0817   -0.1644 C.3       1 <0>        -0.0843
     18 H3         -1.0180   -2.4085   -1.1932 H         1 <0>         0.0911
     19 C13        -2.3193   -2.7830    0.6410 C.3       1 <0>        -0.1226
     20 C14        -1.5568   -0.5833    0.0249 C.3       1 <0>        -0.1352
     21 H4         -2.2879   -0.2805   -0.7247 H         1 <0>         0.0752
     22 C15        -0.3316    0.2905   -0.0547 C.2       1 <0>         0.4604
     23 O2          0.4846    0.2691    0.8360 O.co2     1 <0>        -0.6064
     24 F2          0.5366    3.5893    0.7288 F         1 <0>        -0.1173
     25 H5          2.0182    4.7293    4.8245 H         1 <0>         0.1369
     26 H6          1.9774    5.0055    2.3790 H         1 <0>         0.1422
     27 H7         -0.8261    1.5614    4.5243 H         1 <0>         0.1668
     28 H8         -1.3851    1.9590    1.0383 H         1 <0>         0.4174
     29 H9         -0.1503   -1.4073    2.7842 H         1 <0>         0.1061
     30 H10        -0.4364   -3.1745    2.7435 H         1 <0>         0.0429
     31 H11         0.7733   -1.5083    0.6739 H         1 <0>         0.1125
     32 H12         0.4890   -3.2747    0.6340 H         1 <0>         0.0389
     33 H13        -2.1348   -3.8491    0.7727 H         1 <0>         0.0668
     34 H14        -3.2993   -2.5935    0.2030 H         1 <0>         0.0631
     35 O3         -0.1471    1.0927   -1.1150 O.co2     1 <0>        -0.7539
@<TRIPOS>BOND
     1    1    6 ar
     2    1    2 ar
     3    1   25 1
     4    2    3 ar
     5    2   26 1
     6    3    4 ar
     7    3   24 1
     8    4    5 ar
     9    4    8 1
    10    5    6 ar
    11    5   27 1
    12    6    7 1
    13    8    9 am
    14    8   28 1
    15    9   10 2
    16    9   11 1
    17   11   12 1
    18   11   20 1
    19   11   13 1
    20   13   14 1
    21   13   19 1
    22   13   15 1
    23   15   16 1
    24   15   29 1
    25   15   30 1
    26   16   17 1
    27   16   31 1
    28   16   32 1
    29   17   18 1
    30   17   19 1
    31   17   20 1
    32   19   33 1
    33   19   34 1
    34   20   21 1
    35   20   22 1
    36   22   23 2
    37   22   35 1
@<TRIPOS>MOLECULE
ZINC35721521
   45    45     0     0     0
SMALL
USER_CHARGES

@<TRIPOS>ATOM
      1 C1         -0.0187    1.5258    0.0104 C.3       1 <0>        -0.1455
      2 C2          0.0021   -0.0041    0.0020 C.3       1 <0>        -0.0975
      3 H1          0.5123   -0.3556   -0.8948 H         1 <0>         0.0792
      4 C3         -1.4333   -0.5336    0.0129 C.3       1 <0>        -0.1140
      5 C4         -1.4126   -2.0635    0.0045 C.3       1 <0>        -0.1179
      6 C5         -0.6726   -2.5703    1.2440 C.3       1 <0>        -0.1178
      7 C6          0.7628   -2.0407    1.2331 C.3       1 <0>        -0.1327
      8 C7          0.7421   -0.5109    1.2415 C.3       1 <0>         0.1542
      9 H2          1.7647   -0.1336    1.2338 H         1 <0>         0.0834
     10 N1          0.0564   -0.0384    2.4469 N.am      1 <0>        -0.7354
     11 C8          0.7380    0.0932    3.6021 C.2       1 <0>         0.5059
     12 O1          1.9190   -0.1795    3.6438 O.2       1 <0>        -0.4956
     13 C9          0.0326    0.5792    4.8420 C.3       1 <0>        -0.1128
     14 C10         1.0260    0.6377    6.0041 C.3       1 <0>        -0.1110
     15 C11         2.1637    1.5992    5.6545 C.3       1 <0>        -0.1249
     16 C12         0.3099    1.1312    7.2629 C.3       1 <0>        -0.0724
     17 C13         1.3034    1.1897    8.4250 C.3       1 <0>        -0.1394
     18 C14        -0.2621    2.5275    7.0100 C.3       1 <0>        -0.1469
     19 C15         1.5894   -0.7376    6.2531 C.2       1 <0>         0.5168
     20 O2          2.7896   -0.9309    6.1597 O.co2     1 <0>        -0.6811
     21 O3          0.8450   -1.6571    6.5481 O.co2     1 <0>        -0.7154
     22 H3          1.0039    1.9031    0.0027 H         1 <0>         0.0550
     23 H4         -0.5459    1.8868   -0.8726 H         1 <0>         0.0520
     24 H5         -0.5289    1.8773    0.9072 H         1 <0>         0.0567
     25 H6         -1.9435   -0.1821    0.9097 H         1 <0>         0.0608
     26 H7         -1.9605   -0.1726   -0.8702 H         1 <0>         0.0612
     27 H8         -2.4352   -2.4408    0.0122 H         1 <0>         0.0587
     28 H9         -0.9024   -2.4150   -0.8923 H         1 <0>         0.0594
     29 H10        -1.1828   -2.2188    2.1408 H         1 <0>         0.0645
     30 H11        -0.6578   -3.6602    1.2380 H         1 <0>         0.0586
     31 H12         1.2900   -2.4018    2.1162 H         1 <0>         0.0730
     32 H13         1.2730   -2.3923    0.3363 H         1 <0>         0.0637
     33 H14        -0.8882    0.1796    2.4135 H         1 <0>         0.3902
     34 H15        -0.3749    1.5740    4.6618 H         1 <0>         0.0740
     35 H16        -0.7779   -0.1058    5.0910 H         1 <0>         0.0868
     36 H17         1.7562    2.5940    5.4744 H         1 <0>         0.0215
     37 H18         2.8714    1.6409    6.4825 H         1 <0>         0.0475
     38 H19         2.6739    1.2477    4.7578 H         1 <0>         0.0752
     39 H20        -0.5006    0.4462    7.5119 H         1 <0>         0.0671
     40 H21         2.1138    1.8747    8.1760 H         1 <0>         0.0513
     41 H22         0.7932    1.5412    9.3218 H         1 <0>         0.0393
     42 H23         1.7108    0.1949    8.6051 H         1 <0>         0.0591
     43 H24        -0.9698    2.4858    6.1821 H         1 <0>         0.0485
     44 H25        -0.7722    2.8790    7.9068 H         1 <0>         0.0433
     45 H26         0.5484    3.2125    6.7610 H         1 <0>         0.0533
@<TRIPOS>BOND
     1    1    2 1
     2    1   22 1
     3    1   23 1
     4    1   24 1
     5    2    3 1
     6    2    8 1
     7    2    4 1
     8    4    5 1
     9    4   25 1
    10    4   26 1
    11    5    6 1
    12    5   27 1
    13    5   28 1
    14    6    7 1
    15    6   29 1
    16    6   30 1
    17    7    8 1
    18    7   31 1
    19    7   32 1
    20    8    9 1
    21    8   10 1
    22   10   11 am
    23   10   33 1
    24   11   12 2
    25   11   13 1
    26   13   14 1
    27   13   34 1
    28   13   35 1
    29   14   15 1
    30   14   16 1
    31   14   19 1
    32   15   36 1
    33   15   37 1
    34   15   38 1
    35   16   17 1
    36   16   18 1
    37   16   39 1
    38   17   40 1
    39   17   41 1
    40   17   42 1
    41   18   43 1
    42   18   44 1
    43   18   45 1
    44   19   20 2
    45   19   21 1
@<TRIPOS>MOLECULE
ZINC00377615
   41    42     0     0     0
SMALL
USER_CHARGES

@<TRIPOS>ATOM
      1 C1         -0.6959   -4.0015   -2.0692 C.3       1 <0>        -0.1103
      2 C2         -0.2745   -3.7363   -0.6469 C.2       1 <0>        -0.1246
      3 C3          0.1589   -4.7346    0.0539 C.2       1 <0>        -0.1428
      4 C4          0.6221   -4.6247    1.4771 C.3       1 <0>        -0.0647
      5 C5          0.1229   -3.3165    2.0943 C.3       1 <0>        -0.1439
      6 H1         -0.9562   -3.3679    2.2391 H         1 <0>         0.0720
      7 C6          0.4602   -2.1678    1.1352 C.3       1 <0>        -0.0900
      8 H2          0.2281   -1.2143    1.6095 H         1 <0>         0.0910
      9 C7         -0.3778   -2.3302   -0.1329 C.3       1 <0>        -0.0567
     10 C8          1.9248   -2.2152    0.7834 C.2       1 <0>         0.5336
     11 O1          2.2871   -2.7728   -0.2309 O.2       1 <0>        -0.5483
     12 N1          2.8321   -1.6379    1.5959 N.am      1 <0>        -0.7213
     13 C9          4.2558   -1.6840    1.2539 C.3       1 <0>         0.1511
     14 C10         4.8588   -2.9974    1.7562 C.3       1 <0>        -0.1288
     15 C11         6.3457   -3.0455    1.3990 C.3       1 <0>        -0.1143
     16 C12         7.0670   -1.8681    2.0583 C.3       1 <0>        -0.1209
     17 C13         6.4640   -0.5547    1.5559 C.3       1 <0>        -0.1118
     18 C14         4.9771   -0.5066    1.9131 C.3       1 <0>        -0.1282
     19 C15         0.8017   -3.0906    3.4206 C.2       1 <0>         0.4973
     20 O2          1.6118   -3.9013    3.8367 O.co2     1 <0>        -0.6858
     21 O3          0.5409   -2.0973    4.0777 O.co2     1 <0>        -0.7020
     22 H3          0.1613   -3.8784   -2.7311 H         1 <0>         0.0598
     23 H4         -1.0755   -5.0200   -2.1518 H         1 <0>         0.0532
     24 H5         -1.4785   -3.2980   -2.3535 H         1 <0>         0.0527
     25 H6          0.1888   -5.7072   -0.4147 H         1 <0>         0.0905
     26 H7          0.2324   -5.4662    2.0499 H         1 <0>         0.0614
     27 H8          1.7115   -4.6448    1.5051 H         1 <0>         0.0750
     28 H9         -0.0196   -1.6393   -0.8961 H         1 <0>         0.0659
     29 H10        -1.4195   -2.1046    0.0954 H         1 <0>         0.0712
     30 H11         2.5423   -1.1919    2.4071 H         1 <0>         0.4063
     31 H12         4.3718   -1.6213    0.1719 H         1 <0>         0.0793
     32 H13         4.7428   -3.0600    2.8382 H         1 <0>         0.0694
     33 H14         4.3450   -3.8361    1.2865 H         1 <0>         0.0666
     34 H15         6.7753   -3.9812    1.7569 H         1 <0>         0.0605
     35 H16         6.4617   -2.9828    0.3170 H         1 <0>         0.0588
     36 H17         6.9510   -1.9308    3.1403 H         1 <0>         0.0631
     37 H18         8.1263   -1.9024    1.8038 H         1 <0>         0.0581
     38 H19         6.9778    0.2840    2.0256 H         1 <0>         0.0622
     39 H20         6.5800   -0.4921    0.4739 H         1 <0>         0.0611
     40 H21         4.5475    0.4291    1.5553 H         1 <0>         0.0648
     41 H22         4.8611   -0.5693    2.9951 H         1 <0>         0.0697
@<TRIPOS>BOND
     1    1    2 1
     2    1   22 1
     3    1   23 1
     4    1   24 1
     5    2    9 1
     6    2    3 2
     7    3    4 1
     8    3   25 1
     9    4    5 1
    10    4   26 1
    11    4   27 1
    12    5    6 1
    13    5    7 1
    14    5   19 1
    15    7    8 1
    16    7    9 1
    17    7   10 1
    18    9   28 1
    19    9   29 1
    20   10   11 2
    21   10   12 am
    22   12   13 1
    23   12   30 1
    24   13   18 1
    25   13   14 1
    26   13   31 1
    27   14   15 1
    28   14   32 1
    29   14   33 1
    30   15   16 1
    31   15   34 1
    32   15   35 1
    33   16   17 1
    34   16   36 1
    35   16   37 1
    36   17   18 1
    37   17   38 1
    38   17   39 1
    39   18   40 1
    40   18   41 1
    41   19   20 2
    42   19   21 1
@<TRIPOS>MOLECULE
ZINC05559557
   28    29     0     0     0
SMALL
USER_CHARGES

@<TRIPOS>ATOM
      1 C1          0.1691    1.4553    0.3155 C.3       1 <0>        -0.1794
      2 C2          0.1225   -0.0736    0.2840 C.3       1 <0>         0.0812
      3 H1          0.4614   -0.4673    1.2423 H         1 <0>         0.0771
      4 C3         -1.3126   -0.5348    0.0220 C.3       1 <0>         0.1219
      5 N1         -1.3603   -1.9990    0.0089 N.pl3     1 <0>        -0.4791
      6 C4         -1.3115   -2.8225   -1.0923 C.2       1 <0>         0.1565
      7 N2         -1.3823   -4.0575   -0.6532 N.2       1 <0>        -0.2777
      8 N3         -1.4708   -4.0630    0.6289 N.2       1 <0>        -0.3391
      9 C5         -1.4564   -2.8313    1.0875 C.2       1 <0>         0.3758
     10 S1         -1.5483   -2.3445    2.7784 S.3       1 <0>        -0.8066
     11 C6         -1.2003   -2.3968   -2.5036 C.ar      1 <0>         0.0280
     12 C7         -0.7721   -1.1050   -2.8141 C.ar      1 <0>        -0.1040
     13 C8         -0.6703   -0.7136   -4.1328 C.ar      1 <0>        -0.1101
     14 C9         -0.9920   -1.5991   -5.1476 C.ar      1 <0>        -0.0415
     15 C10        -1.4173   -2.8819   -4.8458 C.ar      1 <0>        -0.1114
     16 C11        -1.5175   -3.2867   -3.5310 C.ar      1 <0>        -0.0814
     17 Cl1        -0.8619   -1.0990   -6.8049 Cl        1 <0>        -0.0842
     18 O1          0.9750   -0.5548   -0.7570 O.3       1 <0>        -0.5578
     19 H2          1.1915    1.7839    0.5021 H         1 <0>         0.0622
     20 H3         -0.1698    1.8490   -0.6428 H         1 <0>         0.0617
     21 H4         -0.4812    1.8224    1.1095 H         1 <0>         0.0713
     22 H5         -1.9651   -0.1571    0.8093 H         1 <0>         0.1084
     23 H6         -1.6471   -0.1517   -0.9421 H         1 <0>         0.0918
     24 H7         -0.5213   -0.4134   -2.0235 H         1 <0>         0.1581
     25 H8         -0.3395    0.2857   -4.3743 H         1 <0>         0.1304
     26 H9         -1.6668   -3.5682   -5.6415 H         1 <0>         0.1333
     27 H10        -1.8452   -4.2889   -3.2969 H         1 <0>         0.1410
     28 H11         1.9022   -0.2997   -0.6555 H         1 <0>         0.3736
@<TRIPOS>BOND
     1    1    2 1
     2    1   19 1
     3    1   20 1
     4    1   21 1
     5    2    3 1
     6    2    4 1
     7    2   18 1
     8    4   22 1
     9    4   23 1
    10    4    5 1
    11    5    9 1
    12    5    6 1
    13    6   11 1
    14    6    7 2
    15    7    8 1
    16    8    9 2
    17    9   10 1
    18   11   16 ar
    19   11   12 ar
    20   12   13 ar
    21   12   24 1
    22   13   14 ar
    23   13   25 1
    24   14   15 ar
    25   14   17 1
    26   15   16 ar
    27   15   26 1
    28   16   27 1
    29   18   28 1
@<TRIPOS>MOLECULE
ZINC52098161
   31    32     0     0     0
SMALL
USER_CHARGES

@<TRIPOS>ATOM
      1 C1         -0.0187    1.5258    0.0104 C.3       1 <0>        -0.1367
      2 C2          0.0021   -0.0041    0.0020 C.3       1 <0>         0.1921
      3 C3          0.7421   -0.5109    1.2415 C.3       1 <0>        -0.1272
      4 S1          2.3946    0.2345    1.3062 S.3       1 <0>        -0.0281
      5 C4          3.1093   -0.4394    2.7689 C.ar      1 <0>         0.3215
      6 N1          4.3407   -0.0863    3.1086 N.ar      1 <0>        -0.5898
      7 C5          4.9102   -0.5721    4.2012 C.ar      1 <0>         0.1501
      8 C6          4.2056   -1.4587    4.9936 C.ar      1 <0>        -0.3398
      9 C7          2.9120   -1.8112    4.6102 C.ar      1 <0>         0.4415
     10 N2          2.4002   -1.2829    3.5056 N.ar      1 <0>        -0.6137
     11 O1          2.1859   -2.6775    5.3577 O.3       1 <0>        -0.7038
     12 C8         -1.4117   -0.5257    0.0127 C.ar      1 <0>        -0.1096
     13 C9         -2.0507   -0.7660    1.2147 C.ar      1 <0>        -0.1058
     14 C10        -3.3476   -1.2445    1.2246 C.ar      1 <0>        -0.1197
     15 C11        -4.0056   -1.4822    0.0324 C.ar      1 <0>        -0.1209
     16 C12        -3.3670   -1.2410   -1.1697 C.ar      1 <0>        -0.1256
     17 C13        -2.0716   -0.7585   -1.1795 C.ar      1 <0>        -0.1020
     18 O2          0.6709   -0.4649   -1.1737 O.3       1 <0>        -0.5451
     19 H1          1.0039    1.9031    0.0027 H         1 <0>         0.0791
     20 H2         -0.5459    1.8868   -0.8726 H         1 <0>         0.0644
     21 H3         -0.5289    1.8773    0.9072 H         1 <0>         0.0738
     22 H4          0.1838   -0.2350    2.1361 H         1 <0>         0.1002
     23 H5          0.8346   -1.5958    1.1912 H         1 <0>         0.0924
     24 H6          5.9143   -0.2789    4.4699 H         1 <0>         0.1401
     25 H7          4.6472   -1.8696    5.8894 H         1 <0>         0.1138
     26 H8         -1.5366   -0.5803    2.1462 H         1 <0>         0.1298
     27 H9         -3.8465   -1.4329    2.1637 H         1 <0>         0.1227
     28 H10        -5.0186   -1.8567    0.0400 H         1 <0>         0.1191
     29 H11        -3.8810   -1.4271   -2.1011 H         1 <0>         0.1202
     30 H12        -1.5739   -0.5665   -2.1185 H         1 <0>         0.1285
     31 H13         0.7216   -1.4279   -1.2455 H         1 <0>         0.3786
@<TRIPOS>BOND
     1    1    2 1
     2    1   19 1
     3    1   20 1
     4    1   21 1
     5    2    3 1
     6    2   12 1
     7    2   18 1
     8    3   22 1
     9    3   23 1
    10    3    4 1
    11    4    5 1
    12    5    6 ar
    13    5   10 ar
    14    6    7 ar
    15    7   24 1
    16    7    8 ar
    17    8   25 1
    18    8    9 ar
    19    9   11 1
    20    9   10 ar
    21   12   17 ar
    22   12   13 ar
    23   13   14 ar
    24   13   26 1
    25   14   15 ar
    26   14   27 1
    27   15   16 ar
    28   15   28 1
    29   16   17 ar
    30   16   29 1
    31   17   30 1
    32   18   31 1
@<TRIPOS>MOLECULE
ZINC05104581
   52    54     0     0     0
SMALL
USER_CHARGES
6-hydroxy-7-isopropyl-1,4a-dimethyl-2,3,4,4b,5,6,10,10a-octahydrophenanthrene-1-carboxylic acid
@<TRIPOS>ATOM
      1 C1          5.7956   -4.5105    4.7223 C.3       1 <0>        -0.1426
      2 C2          4.3685   -4.7483    4.2247 C.3       1 <0>        -0.0636
      3 C3          3.4238   -4.8664    5.4224 C.3       1 <0>        -0.1485
      4 C4          3.9394   -3.5925    3.3586 C.2       1 <0>        -0.1680
      5 C5          3.1056   -2.7063    3.8731 C.2       1 <0>        -0.0937
      6 C6          2.6699   -1.5428    3.0656 C.2       1 <0>        -0.1204
      7 C7          1.6670   -0.8056    3.5063 C.2       1 <0>        -0.1087
      8 C8          1.0806    0.2966    2.6540 C.3       1 <0>        -0.0854
      9 C9          1.2631   -0.1300    1.1934 C.3       1 <0>        -0.0384
     10 H1          0.8425   -1.1652    1.1236 H         1 <0>         0.0671
     11 C10         2.7423   -0.2551    0.8815 C.3       1 <0>        -0.0370
     12 C11         3.3907   -1.3004    1.7738 C.3       1 <0>        -0.0276
     13 H2          4.3810   -0.9110    2.0312 H         1 <0>         0.0661
     14 C12         3.6048   -2.6372    1.0702 C.3       1 <0>        -0.1031
     15 C13         4.4837   -3.5181    1.9644 C.3       1 <0>         0.1505
     16 H3          5.4889   -3.1003    1.9949 H         1 <0>         0.0558
     17 O1          4.5376   -4.8340    1.4117 O.3       1 <0>        -0.5600
     18 C14         2.9555   -0.6155   -0.5884 C.3       1 <0>        -0.1052
     19 C15         2.2754    0.4201   -1.4826 C.3       1 <0>        -0.1157
     20 C16         0.7739    0.4175   -1.2207 C.3       1 <0>        -0.0891
     21 C17         0.4545    0.7254    0.2421 C.3       1 <0>        -0.0904
     22 C18         0.6184    2.2215    0.5063 C.3       1 <0>        -0.1242
     23 C19        -1.0208    0.3937    0.4422 C.2       1 <0>         0.4676
     24 O2         -1.3508   -0.4105    1.2814 O.co2     1 <0>        -0.6364
     25 C20         3.4847    1.0537    1.1629 C.3       1 <0>        -0.1491
     26 H4          5.8160   -3.6252    5.3578 H         1 <0>         0.0561
     27 H5          6.1300   -5.3760    5.2941 H         1 <0>         0.0552
     28 H6          6.4576   -4.3607    3.8693 H         1 <0>         0.0520
     29 H7          4.3352   -5.6698    3.6435 H         1 <0>         0.0770
     30 H8          3.4571   -3.9449    6.0036 H         1 <0>         0.0584
     31 H9          2.4071   -5.0359    5.0679 H         1 <0>         0.0592
     32 H10         3.7343   -5.7026    6.0490 H         1 <0>         0.0538
     33 H11         2.7414   -2.8293    4.8829 H         1 <0>         0.1210
     34 H12         1.2312   -1.0145    4.4703 H         1 <0>         0.1037
     35 H13         1.5752    1.2340    2.8753 H         1 <0>         0.0691
     36 H14         0.0177    0.3862    2.8931 H         1 <0>         0.0884
     37 H15         2.6474   -3.1290    0.9039 H         1 <0>         0.0747
     38 H16         4.1114   -2.4838    0.1174 H         1 <0>         0.0773
     39 H17         5.1511   -5.4269    1.8668 H         1 <0>         0.3702
     40 H18         4.0238   -0.6379   -0.8071 H         1 <0>         0.0554
     41 H19         2.5252   -1.5983   -0.7893 H         1 <0>         0.0631
     42 H20         2.6923    1.4089   -1.3220 H         1 <0>         0.0612
     43 H21         2.4516    0.1444   -2.5311 H         1 <0>         0.0493
     44 H22         0.3628   -0.5633   -1.4770 H         1 <0>         0.0498
     45 H23         0.2941    1.1680   -1.8560 H         1 <0>         0.0634
     46 H24         1.6401    2.5217    0.2740 H         1 <0>         0.0448
     47 H25        -0.0760    2.7796   -0.1218 H         1 <0>         0.0578
     48 H26         0.4079    2.4305    1.5552 H         1 <0>         0.0440
     49 H27         3.2889    1.3693    2.1877 H         1 <0>         0.0547
     50 H28         4.5554    0.9003    1.0282 H         1 <0>         0.0452
     51 H29         3.1383    1.8234    0.4732 H         1 <0>         0.0651
     52 O3         -1.9525    0.9952   -0.3140 O.co2     1 <0>        -0.7696
@<TRIPOS>BOND
     1    1    2 1
     2    1   26 1
     3    1   27 1
     4    1   28 1
     5    2    3 1
     6    2    4 1
     7    2   29 1
     8    3   30 1
     9    3   31 1
    10    3   32 1
    11    4   15 1
    12    4    5 2
    13    5    6 1
    14    5   33 1
    15    6   12 1
    16    6    7 2
    17    7    8 1
    18    7   34 1
    19    8    9 1
    20    8   35 1
    21    8   36 1
    22    9   10 1
    23    9   21 1
    24    9   11 1
    25   11   12 1
    26   11   18 1
    27   11   25 1
    28   12   13 1
    29   12   14 1
    30   14   15 1
    31   14   37 1
    32   14   38 1
    33   15   16 1
    34   15   17 1
    35   17   39 1
    36   18   19 1
    37   18   40 1
    38   18   41 1
    39   19   20 1
    40   19   42 1
    41   19   43 1
    42   20   21 1
    43   20   44 1
    44   20   45 1
    45   21   22 1
    46   21   23 1
    47   22   46 1
    48   22   47 1
    49   22   48 1
    50   23   24 2
    51   23   52 1
    52   25   49 1
    53   25   50 1
    54   25   51 1
@<TRIPOS>MOLECULE
ZINC02532841
   28    29     0     0     0
SMALL
USER_CHARGES
(5E)-5-[(3-bromo-5-ethoxy-4-hydroxy-phenyl)methylene]-2-thioxo-thiazolidin-4-one
@<TRIPOS>ATOM
      1 C1         -3.4994   -0.7186   -1.4654 C.3       1 <0>        -0.1485
      2 C2         -2.3215    0.1875   -1.1018 C.3       1 <0>         0.0470
      3 O1         -1.1710   -0.6142   -0.8266 O.3       1 <0>        -0.3034
      4 C3         -0.0294    0.0410   -0.4848 C.ar      1 <0>         0.0922
      5 C4         -0.0193    1.4204   -0.4166 C.ar      1 <0>        -0.0782
      6 C5          1.1578    2.0919   -0.0643 C.ar      1 <0>        -0.0592
      7 C6          2.3184    1.3607    0.2169 C.ar      1 <0>        -0.0644
      8 C7          2.2988   -0.0156    0.1463 C.ar      1 <0>        -0.1679
      9 C8          1.1301   -0.6801   -0.2039 C.ar      1 <0>         0.1674
     10 O2          1.1170   -2.0370   -0.2722 O.3       1 <0>        -0.4885
     11 Br1         3.8668   -1.0019    0.5264 Br        1 <0>        -0.0421
     12 C9          1.1753    3.5583    0.0095 C.2       1 <0>        -0.0003
     13 C10         0.1085    4.2250    0.5197 C.2       1 <0>        -0.1965
     14 C11        -1.0910    3.6999    1.2021 C.2       1 <0>         0.5221
     15 O3         -1.2503    2.5077    1.3883 O.3       1 <0>        -0.4926
     16 N1         -1.9833    4.5906    1.6013 N.2       1 <0>        -0.6482
     17 C12        -1.8025    5.9108    1.3938 C.2       1 <0>         0.3935
     18 S1         -2.8317    7.2067    1.8322 S.2       1 <0>        -0.5582
     19 S2         -0.2266    5.9805    0.5570 S.3       1 <0>        -0.1625
     20 H1         -4.3850   -0.1014   -1.6772 H         1 <0>         0.0785
     21 H2         -3.7157   -1.3939   -0.6245 H         1 <0>         0.0661
     22 H3         -3.2444   -1.3119   -2.3559 H         1 <0>         0.0630
     23 H4         -2.1052    0.8628   -1.9427 H         1 <0>         0.0577
     24 H5         -2.5765    0.7808   -0.2113 H         1 <0>         0.0757
     25 H6         -0.9159    1.9800   -0.6388 H         1 <0>         0.1438
     26 H7          3.2285    1.8749    0.4887 H         1 <0>         0.1377
     27 H8          2.0310   -2.6077   -0.0509 H         1 <0>         0.4223
     28 H9          2.0528    4.1166   -0.3486 H         1 <0>         0.1434
@<TRIPOS>BOND
     1    1    2 1
     2    1   20 1
     3    1   21 1
     4    1   22 1
     5    2    3 1
     6    2   23 1
     7    2   24 1
     8    3    4 1
     9    4    9 ar
    10    4    5 ar
    11    5    6 ar
    12    5   25 1
    13    6    7 ar
    14    6   12 1
    15    7    8 ar
    16    7   26 1
    17    8    9 ar
    18    8   11 1
    19    9   10 1
    20   10   27 1
    21   12   13 2
    22   12   28 1
    23   13   19 1
    24   13   14 1
    25   14   15 1
    26   14   16 2
    27   16   17 1
    28   17   18 2
    29   17   19 1
@<TRIPOS>MOLECULE
ZINC37365153
   37    38     0     0     0
SMALL
USER_CHARGES

@<TRIPOS>ATOM
      1 C1          2.9318    1.0720   -1.8511 C.2       1 <0>        -0.1147
      2 C2          2.3076    2.0271   -2.6332 C.2       1 <0>        -0.1113
      3 C3          1.4972    1.6225   -3.6425 C.2       1 <0>        -0.1178
      4 S1          1.5991   -0.1548   -3.5088 S.3       1 <0>         0.1195
      5 C4          2.7144   -0.2398   -2.1175 C.2       1 <0>        -0.1127
      6 Cl1         3.3554   -1.6390   -1.3144 Cl        1 <0>         0.0209
      7 Cl2         0.5943    2.5838   -4.7714 Cl        1 <0>         0.0252
      8 C5          2.5244    3.4945   -2.3675 C.3       1 <0>         0.1550
      9 H1          2.5244    4.0387   -3.3119 H         1 <0>         0.1079
     10 C6          1.3999    4.0227   -1.4745 C.3       1 <0>        -0.1450
     11 C7          1.5427    5.5378   -1.3169 C.3       1 <0>        -0.0159
     12 C8          0.3424    6.0854   -0.5422 C.3       1 <0>        -0.1173
     13 C9         -0.9448    5.7714   -1.3073 C.3       1 <0>        -0.1184
     14 C10        -0.8888    6.4249   -2.6896 C.3       1 <0>        -0.1152
     15 C11         0.3116    5.8773   -3.4644 C.3       1 <0>        -0.1237
     16 C12         1.5987    6.1913   -2.6992 C.3       1 <0>        -0.1162
     17 C13         2.8299    5.8519   -0.5518 C.3       1 <0>        -0.1899
     18 C14         2.8149    5.1334    0.7728 C.2       1 <0>         0.4949
     19 O1          1.8146    4.5352    1.1306 O.co2     1 <0>        -0.6913
     20 O2          3.8031    5.1503    1.4867 O.co2     1 <0>        -0.7086
     21 O3          3.7803    3.6793   -1.7113 O.3       1 <0>        -0.5439
     22 H2          3.5858    1.3664   -1.0436 H         1 <0>         0.1527
     23 H3          0.4364    3.7940   -1.9301 H         1 <0>         0.0599
     24 H4          1.4604    3.5482   -0.4951 H         1 <0>         0.1133
     25 H5          0.3025    5.6199    0.4426 H         1 <0>         0.1038
     26 H6          0.4442    7.1649   -0.4299 H         1 <0>         0.0405
     27 H7         -1.0466    4.6920   -1.4196 H         1 <0>         0.0600
     28 H8         -1.7999    6.1615   -0.7554 H         1 <0>         0.0495
     29 H9         -1.8058    6.2011   -3.2347 H         1 <0>         0.0487
     30 H10        -0.7870    7.5043   -2.5774 H         1 <0>         0.0545
     31 H11         0.2098    4.7979   -3.5766 H         1 <0>         0.0656
     32 H12         0.3515    6.3428   -4.4491 H         1 <0>         0.0481
     33 H13         1.7005    7.2707   -2.5870 H         1 <0>         0.0534
     34 H14         2.4539    5.8012   -3.2512 H         1 <0>         0.0574
     35 H15         3.6892    5.5209   -1.1350 H         1 <0>         0.0884
     36 H16         2.8985    6.9263   -0.3816 H         1 <0>         0.0437
     37 H17         3.8515    3.2220   -0.8622 H         1 <0>         0.3792
@<TRIPOS>BOND
     1    1    5 2
     2    1    2 1
     3    1   22 1
     4    2    3 2
     5    2    8 1
     6    3    4 1
     7    3    7 1
     8    4    5 1
     9    5    6 1
    10    8    9 1
    11    8   10 1
    12    8   21 1
    13   10   11 1
    14   10   23 1
    15   10   24 1
    16   11   16 1
    17   11   12 1
    18   11   17 1
    19   12   13 1
    20   12   25 1
    21   12   26 1
    22   13   14 1
    23   13   27 1
    24   13   28 1
    25   14   15 1
    26   14   29 1
    27   14   30 1
    28   15   16 1
    29   15   31 1
    30   15   32 1
    31   16   33 1
    32   16   34 1
    33   17   18 1
    34   17   35 1
    35   17   36 1
    36   18   19 2
    37   18   20 1
    38   21   37 1
@<TRIPOS>MOLECULE
ZINC39887373
   40    42     0     0     0
SMALL
USER_CHARGES

@<TRIPOS>ATOM
      1 C1         -0.7930   -2.6669    4.8463 C.3       1 <0>        -0.1430
      2 C2         -0.0052   -1.3554    4.8346 C.3       1 <0>        -0.0862
      3 C3          0.8295   -1.2820    3.5820 C.ar      1 <0>        -0.0736
      4 C4          2.1297   -1.7484    3.5893 C.ar      1 <0>        -0.1194
      5 C5          2.8960   -1.6819    2.4404 C.ar      1 <0>        -0.1150
      6 C6          2.3640   -1.1485    1.2805 C.ar      1 <0>        -0.1234
      7 C7          1.0651   -0.6802    1.2665 C.ar      1 <0>        -0.0800
      8 C8          0.2905   -0.7508    2.4176 C.ar      1 <0>         0.1615
      9 N1         -1.0271   -0.2830    2.4053 N.pl3     1 <0>        -0.5710
     10 C9         -2.1455   -1.2079    2.1929 C.3       1 <0>         0.4254
     11 H1         -1.7952   -2.2333    2.3108 H         1 <0>         0.1099
     12 N2         -3.2022   -0.9390    3.1699 N.am      1 <0>        -0.7405
     13 C10        -3.3950    0.3069    3.6467 C.2       1 <0>         0.6007
     14 O1         -4.3031    0.5304    4.4267 O.2       1 <0>        -0.5665
     15 C11        -2.5058    1.3905    3.2216 C.2       1 <0>        -0.3193
     16 C12        -1.2973    1.0492    2.5974 C.2       1 <0>         0.4525
     17 S1         -0.1654    2.2934    2.0724 S.3       1 <0>        -0.7893
     18 C13        -2.8593    2.7605    3.4422 C.1       1 <0>         0.3374
     19 N3         -3.1397    3.8474    3.6173 N.1       1 <0>        -0.4979
     20 C14        -2.6923   -1.0219    0.8010 C.ar      1 <0>        -0.1200
     21 C15        -1.8983   -0.4666   -0.1850 C.ar      1 <0>        -0.0919
     22 C16        -2.3999   -0.2960   -1.4618 C.ar      1 <0>        -0.1214
     23 C17        -3.6952   -0.6811   -1.7527 C.ar      1 <0>        -0.1170
     24 C18        -4.4889   -1.2373   -0.7669 C.ar      1 <0>        -0.1273
     25 C19        -3.9859   -1.4118    0.5088 C.ar      1 <0>        -0.0944
     26 H2         -0.1059   -3.5046    4.7274 H         1 <0>         0.0526
     27 H3         -1.3234   -2.7637    5.7937 H         1 <0>         0.0567
     28 H4         -1.5111   -2.6667    4.0263 H         1 <0>         0.0540
     29 H5         -0.6986   -0.5148    4.8589 H         1 <0>         0.0769
     30 H6          0.6458   -1.3148    5.7079 H         1 <0>         0.0688
     31 H7          2.5482   -2.1651    4.4935 H         1 <0>         0.1199
     32 H8          3.9125   -2.0469    2.4488 H         1 <0>         0.1184
     33 H9          2.9652   -1.0980    0.3847 H         1 <0>         0.1209
     34 H10         0.6505   -0.2632    0.3607 H         1 <0>         0.1284
     35 H11        -3.7689   -1.6640    3.4767 H         1 <0>         0.4007
     36 H12        -0.8863   -0.1657    0.0423 H         1 <0>         0.1355
     37 H13        -1.7798    0.1385   -2.2320 H         1 <0>         0.1201
     38 H14        -4.0873   -0.5472   -2.7501 H         1 <0>         0.1176
     39 H15        -5.5010   -1.5378   -0.9941 H         1 <0>         0.1192
     40 H16        -4.6047   -1.8497    1.2780 H         1 <0>         0.1203
@<TRIPOS>BOND
     1    1    2 1
     2    1   26 1
     3    1   27 1
     4    1   28 1
     5    2    3 1
     6    2   29 1
     7    2   30 1
     8    3    8 ar
     9    3    4 ar
    10    4    5 ar
    11    4   31 1
    12    5    6 ar
    13    5   32 1
    14    6    7 ar
    15    6   33 1
    16    7    8 ar
    17    7   34 1
    18    8    9 1
    19    9   16 1
    20    9   10 1
    21   10   11 1
    22   10   12 1
    23   10   20 1
    24   12   13 am
    25   12   35 1
    26   13   14 2
    27   13   15 1
    28   15   16 2
    29   15   18 1
    30   16   17 1
    31   18   19 3
    32   20   25 ar
    33   20   21 ar
    34   21   22 ar
    35   21   36 1
    36   22   23 ar
    37   22   37 1
    38   23   24 ar
    39   23   38 1
    40   24   25 ar
    41   24   39 1
    42   25   40 1
@<TRIPOS>MOLECULE
ZINC41750077
   36    38     0     0     0
SMALL
USER_CHARGES

@<TRIPOS>ATOM
      1 C1          4.1008   -5.2435    3.8090 C.3       1 <0>        -0.0955
      2 C2          3.0270   -4.9574    2.7912 C.ar      1 <0>        -0.1626
      3 C3          3.0457   -5.6033    1.5684 C.ar      1 <0>        -0.0644
      4 C4          2.0631   -5.3441    0.6332 C.ar      1 <0>        -0.1507
      5 C5          1.0548   -4.4333    0.9216 C.ar      1 <0>         0.2831
      6 C6          1.0386   -3.7858    2.1510 C.ar      1 <0>        -0.1792
      7 C7          2.0221   -4.0540    3.0841 C.ar      1 <0>        -0.0502
      8 Br1        -0.3311   -2.5443    2.5492 Br        1 <0>        -0.0780
      9 N1          0.0595   -4.1684   -0.0226 N.pl3     1 <0>        -0.7014
     10 C8          0.1122   -4.8052   -1.3409 C.3       1 <0>         0.1383
     11 C9          0.0204   -6.3394   -1.1986 C.3       1 <0>        -0.1239
     12 C10        -1.4957   -6.5947   -1.3342 C.3       1 <0>        -0.0770
     13 C11        -2.0197   -5.4391   -2.1597 C.ar      1 <0>        -0.0878
     14 C12        -1.0957   -4.4107   -2.1635 C.ar      1 <0>        -0.0617
     15 C13        -1.3654   -3.2445   -2.8593 C.ar      1 <0>        -0.0841
     16 C14        -2.5543   -3.1056   -3.5490 C.ar      1 <0>        -0.1277
     17 C15        -3.4780   -4.1337   -3.5453 C.ar      1 <0>        -0.1222
     18 C16        -3.2102   -5.2985   -2.8524 C.ar      1 <0>        -0.1174
     19 C17         1.3810   -4.4194   -2.0567 C.2       1 <0>         0.4953
     20 O1          2.1880   -3.6844   -1.5134 O.co2     1 <0>        -0.6676
     21 O2          1.6005   -4.8421   -3.1790 O.co2     1 <0>        -0.6859
     22 H1          3.7887   -6.0735    4.4429 H         1 <0>         0.0575
     23 H2          5.0265   -5.5056    3.2967 H         1 <0>         0.0591
     24 H3          4.2639   -4.3583    4.4238 H         1 <0>         0.0566
     25 H4          3.8301   -6.3112    1.3445 H         1 <0>         0.1176
     26 H5          2.0788   -5.8488   -0.3214 H         1 <0>         0.1315
     27 H6          2.0079   -3.5546    4.0416 H         1 <0>         0.1194
     28 H7         -0.6665   -3.5629    0.1948 H         1 <0>         0.3931
     29 H8          0.5700   -6.8362   -1.9982 H         1 <0>         0.0866
     30 H9          0.3815   -6.6601   -0.2215 H         1 <0>         0.0798
     31 H10        -1.6758   -7.5389   -1.8482 H         1 <0>         0.0721
     32 H11        -1.9674   -6.6021   -0.3516 H         1 <0>         0.0747
     33 H12        -0.6441   -2.4407   -2.8627 H         1 <0>         0.1183
     34 H13        -2.7620   -2.1944   -4.0902 H         1 <0>         0.1200
     35 H14        -4.4078   -4.0269   -4.0841 H         1 <0>         0.1189
     36 H15        -3.9323   -6.1016   -2.8502 H         1 <0>         0.1157
@<TRIPOS>BOND
     1    1    2 1
     2    1   22 1
     3    1   23 1
     4    1   24 1
     5    2    7 ar
     6    2    3 ar
     7    3    4 ar
     8    3   25 1
     9    4    5 ar
    10    4   26 1
    11    5    6 ar
    12    5    9 1
    13    6    7 ar
    14    6    8 1
    15    7   27 1
    16    9   10 1
    17    9   28 1
    18   10   14 1
    19   10   11 1
    20   10   19 1
    21   11   12 1
    22   11   29 1
    23   11   30 1
    24   12   13 1
    25   12   31 1
    26   12   32 1
    27   13   18 ar
    28   13   14 ar
    29   14   15 ar
    30   15   16 ar
    31   15   33 1
    32   16   17 ar
    33   16   34 1
    34   17   18 ar
    35   17   35 1
    36   18   36 1
    37   19   20 2
    38   19   21 1
@<TRIPOS>MOLECULE
ZINC04698076
   57    60     0     0     0
SMALL
USER_CHARGES
4-[2-(1-adamantyl)ethylamino]-2-[(4-chlorophenyl)methyl]-4-oxo-butanoic acid
@<TRIPOS>ATOM
      1 C1        -11.2751    0.2578    6.1014 C.ar      1 <0>        -0.1106
      2 C2        -11.8736    0.6162    7.2946 C.ar      1 <0>        -0.1320
      3 C3        -12.6422    1.7644    7.3652 C.ar      1 <0>        -0.0366
      4 C4        -12.8067    2.5562    6.2427 C.ar      1 <0>        -0.1221
      5 C5        -12.2030    2.1998    5.0515 C.ar      1 <0>        -0.0121
      6 C6        -11.4351    1.0525    4.9816 C.ar      1 <0>        -0.0591
      7 C7        -10.7772    0.6645    3.6825 C.3       1 <0>        -0.0583
      8 C8         -9.3846    1.2939    3.6081 C.3       1 <0>        -0.1169
      9 H1         -8.8094    1.0084    4.4889 H         1 <0>         0.0761
     10 C9         -8.6685    0.8005    2.3493 C.3       1 <0>        -0.1156
     11 C10        -7.2547    1.3221    2.3386 C.2       1 <0>         0.5245
     12 O1         -6.8588    2.0198    3.2483 O.2       1 <0>        -0.5173
     13 N1         -6.4301    1.0132    1.3182 N.am      1 <0>        -0.7455
     14 C11        -5.0557    1.5203    1.3078 C.3       1 <0>         0.1195
     15 C12        -4.3396    1.0269    0.0490 C.3       1 <0>        -0.1198
     16 C13        -2.9042    1.5565    0.0381 C.3       1 <0>        -0.0467
     17 C14        -2.1881    1.0631   -1.2207 C.3       1 <0>        -0.1001
     18 C15        -0.7527    1.5927   -1.2315 C.3       1 <0>        -0.0852
     19 C16        -0.0127    1.0858    0.0080 C.3       1 <0>        -0.1066
     20 C17        -0.7288    1.5792    1.2668 C.3       1 <0>        -0.0859
     21 C18        -2.1642    1.0497    1.2777 C.3       1 <0>        -0.1069
     22 C19        -0.7496    3.1091    1.2752 C.3       1 <0>        -0.1091
     23 C20        -1.4896    3.6159    0.0357 C.3       1 <0>        -0.0863
     24 C21        -0.7734    3.1225   -1.2231 C.3       1 <0>        -0.1070
     25 C22        -2.9250    3.0863    0.0466 C.3       1 <0>        -0.1086
     26 C23        -9.5137    2.7945    3.5571 C.2       1 <0>         0.4765
     27 O2         -9.0776    3.4065    2.6109 O.co2     1 <0>        -0.6373
     28 Cl1       -13.3997    2.2116    8.8619 Cl        1 <0>        -0.0987
     29 H2        -10.6786   -0.6408    6.0451 H         1 <0>         0.1197
     30 H3        -11.7449   -0.0023    8.1706 H         1 <0>         0.1204
     31 H4        -13.4063    3.4528    6.2973 H         1 <0>         0.1216
     32 H5        -12.3310    2.8181    4.1752 H         1 <0>         0.1273
     33 H6        -11.3818    1.0205    2.8484 H         1 <0>         0.0659
     34 H7        -10.6887   -0.4207    3.6299 H         1 <0>         0.0618
     35 H8         -9.1957    1.1615    1.4663 H         1 <0>         0.0910
     36 H9         -8.6537   -0.2894    2.3433 H         1 <0>         0.0749
     37 H10        -6.7467    0.4552    0.5907 H         1 <0>         0.3925
     38 H11        -4.5286    1.1592    2.1909 H         1 <0>         0.0624
     39 H12        -5.0705    2.6102    1.3138 H         1 <0>         0.0659
     40 H13        -4.8668    1.3880   -0.8341 H         1 <0>         0.0683
     41 H14        -4.3248   -0.0630    0.0430 H         1 <0>         0.0666
     42 H15        -2.7153    1.4241   -2.1037 H         1 <0>         0.0614
     43 H16        -2.1733   -0.0268   -1.2266 H         1 <0>         0.0606
     44 H17        -0.2425    1.2411   -2.1283 H         1 <0>         0.0660
     45 H18         0.0021   -0.0041    0.0020 H         1 <0>         0.0593
     46 H19         1.0099    1.4631    0.0003 H         1 <0>         0.0584
     47 H20        -0.2017    1.2182    2.1499 H         1 <0>         0.0673
     48 H21        -2.6744    1.4012    2.1745 H         1 <0>         0.0687
     49 H22        -2.1494   -0.0402    1.2717 H         1 <0>         0.0609
     50 H23        -1.2598    3.4606    2.1720 H         1 <0>         0.0634
     51 H24         0.2730    3.4864    1.2675 H         1 <0>         0.0585
     52 H25        -1.5044    4.7058    0.0417 H         1 <0>         0.0684
     53 H26         0.2491    3.4998   -1.2308 H         1 <0>         0.0584
     54 H27        -1.3006    3.4836   -2.1062 H         1 <0>         0.0601
     55 H28        -3.4522    3.4474   -0.8365 H         1 <0>         0.0624
     56 H29        -3.4352    3.4378    0.9434 H         1 <0>         0.0700
     57 O3        -10.1131    3.4511    4.5627 O.co2     1 <0>        -0.7543
@<TRIPOS>BOND
     1    1    6 ar
     2    1    2 ar
     3    1   29 1
     4    2    3 ar
     5    2   30 1
     6    3    4 ar
     7    3   28 1
     8    4    5 ar
     9    4   31 1
    10    5    6 ar
    11    5   32 1
    12    6    7 1
    13    7    8 1
    14    7   33 1
    15    7   34 1
    16    8    9 1
    17    8   10 1
    18    8   26 1
    19   10   11 1
    20   10   35 1
    21   10   36 1
    22   11   12 2
    23   11   13 am
    24   13   14 1
    25   13   37 1
    26   14   15 1
    27   14   38 1
    28   14   39 1
    29   15   16 1
    30   15   40 1
    31   15   41 1
    32   16   21 1
    33   16   25 1
    34   16   17 1
    35   17   18 1
    36   17   42 1
    37   17   43 1
    38   18   24 1
    39   18   19 1
    40   18   44 1
    41   19   20 1
    42   19   45 1
    43   19   46 1
    44   20   21 1
    45   20   22 1
    46   20   47 1
    47   21   48 1
    48   21   49 1
    49   22   23 1
    50   22   50 1
    51   22   51 1
    52   23   24 1
    53   23   25 1
    54   23   52 1
    55   24   53 1
    56   24   54 1
    57   25   55 1
    58   25   56 1
    59   26   27 2
    60   26   57 1
@<TRIPOS>MOLECULE
ZINC13180757
   50    52     0     0     0
SMALL
USER_CHARGES
(3S)-3-(4,5,6,7,8,9-hexahydrocycloocta[d]thiophene-2-carbonylamino)-3-(p-tolyl)propanoic acid
@<TRIPOS>ATOM
      1 C1          1.7925   -1.9273    2.5453 C.3       1 <0>        -0.1095
      2 C2          0.6656   -1.1715    1.8897 C.ar      1 <0>        -0.0990
      3 C3          0.0307   -1.7010    0.7819 C.ar      1 <0>        -0.1201
      4 C4         -1.0027   -1.0075    0.1802 C.ar      1 <0>        -0.1010
      5 C5         -1.3977    0.2180    0.6832 C.ar      1 <0>        -0.0847
      6 C6         -0.7665    0.7449    1.7945 C.ar      1 <0>        -0.1038
      7 C7          0.2672    0.0516    2.3959 C.ar      1 <0>        -0.1221
      8 C8         -2.5202    0.9769    0.0236 C.3       1 <0>         0.2031
      9 H1         -3.1193    0.2914   -0.5756 H         1 <0>         0.1037
     10 C9         -1.9378    2.0671   -0.8783 C.3       1 <0>        -0.1645
     11 C10        -3.0518    2.7347   -1.6428 C.2       1 <0>         0.4595
     12 O1         -4.1801    2.3108   -1.5597 O.co2     1 <0>        -0.6269
     13 N1         -3.3636    1.5923    1.0512 N.am      1 <0>        -0.6919
     14 C11        -4.3975    0.9045    1.5752 C.2       1 <0>         0.6095
     15 O2         -4.5776   -0.2571    1.2603 O.2       1 <0>        -0.5304
     16 C12        -5.3051    1.5557    2.5244 C.2       1 <0>        -0.2023
     17 C13        -6.4079    1.0409    3.1686 C.2       1 <0>        -0.0843
     18 C14        -7.1204    1.8740    4.0359 C.2       1 <0>        -0.1235
     19 C15        -6.7002    3.1477    4.1402 C.2       1 <0>        -0.1451
     20 S1         -5.2695    3.2211    3.1569 S.3       1 <0>         0.1003
     21 C16        -7.2573    4.3564    4.8495 C.3       1 <0>        -0.0406
     22 C17        -8.5711    4.0478    5.5693 C.3       1 <0>        -0.1208
     23 C18        -8.3200    3.3377    6.8901 C.3       1 <0>        -0.1182
     24 C19        -7.1821    2.3409    6.8202 C.3       1 <0>        -0.1331
     25 C20        -7.7657    1.0340    6.2697 C.3       1 <0>        -0.1140
     26 C21        -8.2619    1.2755    4.8449 C.3       1 <0>        -0.0682
     27 H2          2.7390   -1.6355    2.0901 H         1 <0>         0.0663
     28 H3          1.8147   -1.6952    3.6101 H         1 <0>         0.0619
     29 H4          1.6391   -2.9979    2.4100 H         1 <0>         0.0625
     30 H5          0.3422   -2.6564    0.3862 H         1 <0>         0.1186
     31 H6         -1.4986   -1.4211   -0.6855 H         1 <0>         0.1231
     32 H7         -1.0781    1.7003    2.1902 H         1 <0>         0.1163
     33 H8          0.7632    0.4653    3.2614 H         1 <0>         0.1169
     34 H9         -1.4222    2.8075   -0.2667 H         1 <0>         0.0701
     35 H10        -1.2328    1.6204   -1.5794 H         1 <0>         0.0830
     36 H11        -3.1780    2.4948    1.3546 H         1 <0>         0.3945
     37 H12        -6.7152    0.0182    3.0074 H         1 <0>         0.1409
     38 H13        -7.4310    5.1466    4.1191 H         1 <0>         0.0827
     39 H14        -6.5268    4.7044    5.5799 H         1 <0>         0.0807
     40 H15        -9.1864    3.4117    4.9330 H         1 <0>         0.0770
     41 H16        -9.1017    4.9806    5.7603 H         1 <0>         0.0693
     42 H17        -9.2287    2.8125    7.1842 H         1 <0>         0.0613
     43 H18        -8.0870    4.0833    7.6503 H         1 <0>         0.0551
     44 H19        -6.7714    2.1746    7.8161 H         1 <0>         0.0603
     45 H20        -6.4038    2.7110    6.1528 H         1 <0>         0.0805
     46 H21        -8.5977    0.7131    6.8965 H         1 <0>         0.0647
     47 H22        -6.9955    0.2627    6.2622 H         1 <0>         0.0604
     48 H23        -9.1031    1.9684    4.8614 H         1 <0>         0.0844
     49 H24        -8.5727    0.3310    4.3985 H         1 <0>         0.0701
     50 O3         -2.7904    3.8003   -2.4161 O.co2     1 <0>        -0.7727
@<TRIPOS>BOND
     1    1    2 1
     2    1   27 1
     3    1   28 1
     4    1   29 1
     5    2    7 ar
     6    2    3 ar
     7    3    4 ar
     8    3   30 1
     9    4    5 ar
    10    4   31 1
    11    5    6 ar
    12    5    8 1
    13    6    7 ar
    14    6   32 1
    15    7   33 1
    16    8    9 1
    17    8   10 1
    18    8   13 1
    19   10   11 1
    20   10   34 1
    21   10   35 1
    22   11   12 2
    23   11   50 1
    24   13   14 am
    25   13   36 1
    26   14   15 2
    27   14   16 1
    28   16   20 1
    29   16   17 2
    30   17   18 1
    31   17   37 1
    32   18   26 1
    33   18   19 2
    34   19   20 1
    35   19   21 1
    36   21   22 1
    37   21   38 1
    38   21   39 1
    39   22   23 1
    40   22   40 1
    41   22   41 1
    42   23   24 1
    43   23   42 1
    44   23   43 1
    45   24   25 1
    46   24   44 1
    47   24   45 1
    48   25   26 1
    49   25   46 1
    50   25   47 1
    51   26   48 1
    52   26   49 1
@<TRIPOS>MOLECULE
ZINC32585937
   35    36     0     0     0
SMALL
USER_CHARGES
5-bromo-4-[(4-isopropylphenyl)sulfamoyl]thiophene-2-carboxylic acid
@<TRIPOS>ATOM
      1 C1          1.5919    2.0720   -0.0830 C.3       1 <0>        -0.1493
      2 C2          0.1487    1.5710   -0.1671 C.3       1 <0>        -0.0550
      3 C3         -0.5459    2.2161   -1.3681 C.3       1 <0>        -0.1445
      4 C4         -0.5857    1.9404    1.0960 C.ar      1 <0>        -0.0874
      5 C5         -0.7079    3.2691    1.4594 C.ar      1 <0>        -0.0902
      6 C6         -1.3851    3.6114    2.6133 C.ar      1 <0>        -0.1458
      7 C7         -1.9340    2.6187    3.4151 C.ar      1 <0>         0.1473
      8 C8         -1.8045    1.2847    3.0500 C.ar      1 <0>        -0.1262
      9 C9         -1.1309    0.9497    1.8919 C.ar      1 <0>        -0.1027
     10 N1         -2.6150    2.9611    4.5855 N.pl3     1 <0>        -1.0666
     11 S1         -1.9594    4.0641    5.6324 S.o2      1 <0>         2.6989
     12 O1         -1.6450    5.2169    4.8634 O.2       1 <0>        -0.9490
     13 O2         -2.8201    4.1133    6.7620 O.2       1 <0>        -0.9447
     14 C10        -0.4270    3.4011    6.1954 C.2       1 <0>        -0.6634
     15 C11         0.7539    4.0295    5.8929 C.2       1 <0>        -0.0863
     16 C12         1.9192    3.4505    6.3747 C.2       1 <0>        -0.1430
     17 S2          1.2896    2.0196    7.2343 S.3       1 <0>         0.2709
     18 C13        -0.4007    2.2564    6.9308 C.2       1 <0>        -0.1611
     19 Br1        -1.8556    1.1844    7.4876 Br        1 <0>         0.0430
     20 C14         3.3039    3.8947    6.2146 C.2       1 <0>         0.5243
     21 O3          3.5491    4.9078    5.5875 O.co2     1 <0>        -0.5991
     22 O4          4.3090    3.1808    6.7627 O.co2     1 <0>        -0.7338
     23 H1          2.0913    1.6082    0.7804 H         1 <0>         0.0596
     24 H2          1.5940    3.1655    0.0360 H         1 <0>         0.0600
     25 H3          2.1279    1.8024   -1.0050 H         1 <0>         0.0569
     26 H4          0.1384    0.4761   -0.2727 H         1 <0>         0.0760
     27 H5         -1.5835    1.8559   -1.4286 H         1 <0>         0.0546
     28 H6         -0.0098    1.9465   -2.2900 H         1 <0>         0.0565
     29 H7         -0.5437    3.3096   -1.2491 H         1 <0>         0.0583
     30 H8         -0.2768    4.0401    0.8381 H         1 <0>         0.1272
     31 H9         -1.4840    4.6495    2.8943 H         1 <0>         0.1531
     32 H10        -2.2303    0.5105    3.6710 H         1 <0>         0.1265
     33 H11        -1.0301   -0.0873    1.6072 H         1 <0>         0.1234
     34 H12        -3.5868    2.4981    4.8119 H         1 <0>         0.4494
     35 H13         0.7756    4.9374    5.3084 H         1 <0>         0.1622
@<TRIPOS>BOND
     1    1    2 1
     2    1   23 1
     3    1   24 1
     4    1   25 1
     5    2    3 1
     6    2    4 1
     7    2   26 1
     8    3   27 1
     9    3   28 1
    10    3   29 1
    11    4    9 ar
    12    4    5 ar
    13    5    6 ar
    14    5   30 1
    15    6    7 ar
    16    6   31 1
    17    7    8 ar
    18    7   10 1
    19    8    9 ar
    20    8   32 1
    21    9   33 1
    22   10   11 1
    23   10   34 1
    24   11   12 2
    25   11   13 2
    26   11   14 1
    27   14   18 2
    28   14   15 1
    29   15   16 2
    30   15   35 1
    31   16   17 1
    32   16   20 1
    33   17   18 1
    34   18   19 1
    35   20   21 2
    36   20   22 1
@<TRIPOS>MOLECULE
ZINC41170007
   53    55     0     0     0
SMALL
USER_CHARGES

@<TRIPOS>ATOM
      1 C1         -1.1970    2.1805    2.7939 C.3       1 <0>        -0.1112
      2 C2          0.0460    1.3866    2.3874 C.3       1 <0>        -0.1282
      3 C3          0.0168    1.0984    0.8721 C.3       1 <0>        -0.0943
      4 C4          0.6099   -0.3268    0.7450 C.3       1 <0>        -0.1000
      5 C5          0.0283   -1.0509    1.9846 C.3       1 <0>        -0.1002
      6 H1         -0.9939   -1.3763    1.7915 H         1 <0>         0.0852
      7 C6          0.0533    0.0200    3.0947 C.3       1 <0>        -0.0229
      8 C7          1.3222   -0.1275    3.9367 C.3       1 <0>        -0.1377
      9 C8         -1.1848   -0.1169    3.9830 C.3       1 <0>        -0.1398
     10 C9          0.8922   -2.2264    2.3623 C.2       1 <0>         0.5296
     11 O1          2.0605   -2.2498    2.0371 O.2       1 <0>        -0.5069
     12 N1          0.3668   -3.2518    3.0615 N.am      1 <0>        -0.6678
     13 C10         1.1858   -4.3025    3.4828 C.ar      1 <0>         0.1759
     14 C11         2.3203   -4.6348    2.7582 C.ar      1 <0>        -0.1234
     15 C12         3.1293   -5.6743    3.1762 C.ar      1 <0>        -0.1031
     16 C13         2.8149   -6.3908    4.3185 C.ar      1 <0>        -0.1314
     17 C14         1.6903   -6.0739    5.0514 C.ar      1 <0>        -0.1278
     18 C15         0.8672   -5.0223    4.6438 C.ar      1 <0>         0.0421
     19 N2         -0.2459   -4.6993    5.3694 N.2       1 <0>        -0.4722
     20 C16        -0.1619   -4.5545    6.6614 C.2       1 <0>         0.1969
     21 C17        -1.3792   -4.3226    7.4570 C.ar      1 <0>        -0.0745
     22 C18        -2.6274   -4.2630    6.8302 C.ar      1 <0>        -0.0703
     23 C19        -3.7628   -4.0454    7.5820 C.ar      1 <0>        -0.1291
     24 C20        -3.6688   -3.8863    8.9535 C.ar      1 <0>        -0.1030
     25 C21        -2.4368   -3.9440    9.5812 C.ar      1 <0>        -0.1278
     26 C22        -1.2930   -4.1666    8.8436 C.ar      1 <0>        -0.0877
     27 C23         1.2904    2.1586    2.7431 C.2       1 <0>         0.5086
     28 O2          1.1986    3.2454    3.2880 O.co2     1 <0>        -0.7018
     29 O3          2.3889    1.6964    2.4860 O.co2     1 <0>        -0.6855
     30 H2         -1.1924    2.3355    3.8729 H         1 <0>         0.0516
     31 H3         -1.1930    3.1460    2.2881 H         1 <0>         0.0473
     32 H4         -2.0914    1.6256    2.5105 H         1 <0>         0.0340
     33 H5         -1.0073    1.1200    0.4994 H         1 <0>         0.0514
     34 H6          0.6346    1.8180    0.3350 H         1 <0>         0.0631
     35 H7          0.2732   -0.8047   -0.1749 H         1 <0>         0.0554
     36 H8          1.6986   -0.2975    0.7903 H         1 <0>         0.0952
     37 H9          1.4298    0.7407    4.5869 H         1 <0>         0.0544
     38 H10         1.2523   -1.0299    4.5441 H         1 <0>         0.0192
     39 H11         2.1885   -0.1985    3.2790 H         1 <0>         0.0959
     40 H12        -2.0825   -0.0355    3.3702 H         1 <0>         0.0555
     41 H13        -1.1704   -1.0873    4.4792 H         1 <0>         0.0410
     42 H14        -1.1835    0.6745    4.7326 H         1 <0>         0.0615
     43 H15        -0.5800   -3.2604    3.2723 H         1 <0>         0.4131
     44 H16         2.5719   -4.0808    1.8659 H         1 <0>         0.1554
     45 H17         4.0117   -5.9296    2.6082 H         1 <0>         0.1259
     46 H18         3.4532   -7.2018    4.6370 H         1 <0>         0.1225
     47 H19         1.4489   -6.6358    5.9416 H         1 <0>         0.1224
     48 H20         0.8005   -4.6044    7.1489 H         1 <0>         0.1087
     49 H21        -2.7022   -4.3866    5.7599 H         1 <0>         0.1341
     50 H22        -4.7277   -3.9988    7.0992 H         1 <0>         0.1249
     51 H23        -4.5616   -3.7158    9.5370 H         1 <0>         0.1227
     52 H24        -2.3714   -3.8189   10.6519 H         1 <0>         0.1255
     53 H25        -0.3327   -4.2159    9.3353 H         1 <0>         0.1276
@<TRIPOS>BOND
     1    1    2 1
     2    1   30 1
     3    1   31 1
     4    1   32 1
     5    2    7 1
     6    2    3 1
     7    2   27 1
     8    3    4 1
     9    3   33 1
    10    3   34 1
    11    4    5 1
    12    4   35 1
    13    4   36 1
    14    5    6 1
    15    5    7 1
    16    5   10 1
    17    7    8 1
    18    7    9 1
    19    8   37 1
    20    8   38 1
    21    8   39 1
    22    9   40 1
    23    9   41 1
    24    9   42 1
    25   10   11 2
    26   10   12 am
    27   12   13 1
    28   12   43 1
    29   13   18 ar
    30   13   14 ar
    31   14   15 ar
    32   14   44 1
    33   15   16 ar
    34   15   45 1
    35   16   17 ar
    36   16   46 1
    37   17   18 ar
    38   17   47 1
    39   18   19 1
    40   19   20 2
    41   20   21 1
    42   20   48 1
    43   21   26 ar
    44   21   22 ar
    45   22   23 ar
    46   22   49 1
    47   23   24 ar
    48   23   50 1
    49   24   25 ar
    50   24   51 1
    51   25   26 ar
    52   25   52 1
    53   26   53 1
    54   27   28 2
    55   27   29 1
@<TRIPOS>MOLECULE
ZINC56931586
   45    47     0     0     0
SMALL
USER_CHARGES

@<TRIPOS>ATOM
      1 C1         -0.0184    1.5028    0.0103 C.3       1 <0>        -0.0721
      2 C2          0.0021   -0.0041    0.0020 C.2       1 <0>         0.1086
      3 C3          0.0058   -0.7049   -1.1572 C.2       1 <0>        -0.2660
      4 S1          0.0316   -2.3783   -0.5355 S.3       1 <0>         0.0047
      5 C4          0.0349   -2.0164    1.1081 C.2       1 <0>         0.2776
      6 S2          0.0572   -3.1289    2.4743 S.3       1 <0>        -0.7547
      7 N1          0.0227   -0.6998    1.1250 N.2       1 <0>        -0.5743
      8 C5         -0.0084   -0.2087   -2.5801 C.3       1 <0>        -0.0244
      9 C6          1.4075   -0.0236   -3.0617 C.2       1 <0>         0.5102
     10 O1          2.3367   -0.2703   -2.3224 O.2       1 <0>        -0.5181
     11 N2          1.6412    0.4162   -4.3141 N.am      1 <0>        -0.7304
     12 C7          3.0177    0.5961   -4.7823 C.3       1 <0>         0.1727
     13 C8          3.0035    1.0924   -6.2052 C.ar      1 <0>        -0.1366
     14 C9          3.2124    0.2097   -7.2474 C.ar      1 <0>        -0.0616
     15 C10         3.2000    0.6644   -8.5529 C.ar      1 <0>        -0.1601
     16 C11         2.9781    2.0031   -8.8192 C.ar      1 <0>        -0.0740
     17 C12         2.7682    2.8895   -7.7808 C.ar      1 <0>        -0.2138
     18 C13         2.7749    2.4347   -6.4700 C.ar      1 <0>         0.1468
     19 O2          2.5631    3.3038   -5.4469 O.3       1 <0>        -0.2984
     20 C14         2.3345    4.6710   -5.7939 C.3       1 <0>         0.1027
     21 C15         2.1214    5.4787   -4.5396 C.ar      1 <0>        -0.0991
     22 C16         0.8479    5.6318   -4.0241 C.ar      1 <0>        -0.0930
     23 C17         0.6524    6.3727   -2.8736 C.ar      1 <0>        -0.1212
     24 C18         1.7305    6.9602   -2.2383 C.ar      1 <0>        -0.1073
     25 C19         3.0041    6.8064   -2.7534 C.ar      1 <0>        -0.1231
     26 C20         3.2001    6.0619   -3.9015 C.ar      1 <0>        -0.0950
     27 H1          1.0042    1.8801    0.0026 H         1 <0>         0.0639
     28 H2         -0.5455    1.8639   -0.8728 H         1 <0>         0.0595
     29 H3         -0.5286    1.8543    0.9071 H         1 <0>         0.0647
     30 H4         -0.5155   -0.9364   -3.2137 H         1 <0>         0.0947
     31 H5         -0.5358    0.7441   -2.6274 H         1 <0>         0.1003
     32 H6          0.8981    0.6135   -4.9055 H         1 <0>         0.3966
     33 H7          3.5248    1.3239   -4.1488 H         1 <0>         0.0758
     34 H8          3.5450   -0.3566   -4.7351 H         1 <0>         0.0721
     35 H9          3.3860   -0.8363   -7.0420 H         1 <0>         0.1321
     36 H10         3.3643   -0.0270   -9.3661 H         1 <0>         0.1250
     37 H11         2.9692    2.3560   -9.8399 H         1 <0>         0.1244
     38 H12         2.5949    3.9349   -7.9893 H         1 <0>         0.1280
     39 H13         3.1989    5.0585   -6.3331 H         1 <0>         0.0700
     40 H14         1.4497    4.7422   -6.4266 H         1 <0>         0.0711
     41 H15         0.0056    5.1728   -4.5204 H         1 <0>         0.1237
     42 H16        -0.3426    6.4929   -2.4712 H         1 <0>         0.1261
     43 H17         1.5777    7.5397   -1.3399 H         1 <0>         0.1245
     44 H18         3.8463    7.2657   -2.2572 H         1 <0>         0.1247
     45 H19         4.1955    5.9386   -4.3018 H         1 <0>         0.1226
@<TRIPOS>BOND
     1    1    2 1
     2    1   27 1
     3    1   28 1
     4    1   29 1
     5    2    7 1
     6    2    3 2
     7    3    4 1
     8    3    8 1
     9    4    5 1
    10    5    6 1
    11    5    7 2
    12    8    9 1
    13    8   30 1
    14    8   31 1
    15    9   10 2
    16    9   11 am
    17   11   12 1
    18   11   32 1
    19   12   13 1
    20   12   33 1
    21   12   34 1
    22   13   18 ar
    23   13   14 ar
    24   14   15 ar
    25   14   35 1
    26   15   16 ar
    27   15   36 1
    28   16   17 ar
    29   16   37 1
    30   17   18 ar
    31   17   38 1
    32   18   19 1
    33   19   20 1
    34   20   21 1
    35   20   39 1
    36   20   40 1
    37   21   26 ar
    38   21   22 ar
    39   22   23 ar
    40   22   41 1
    41   23   24 ar
    42   23   42 1
    43   24   25 ar
    44   24   43 1
    45   25   26 ar
    46   25   44 1
    47   26   45 1
@<TRIPOS>MOLECULE
ZINC02103073
   50    52     0     0     0
SMALL
USER_CHARGES
2-[(8-propoxycarbonyl-6-thiabicyclo[3.3.0]octa-7,9-dien-7-yl)carbamoyl]cyclohexane-1-carboxylic acid
@<TRIPOS>ATOM
      1 C1          5.4066   -4.5649   -4.2299 C.3       1 <0>        -0.1498
      2 C2          4.0865   -3.8647   -3.9012 C.3       1 <0>        -0.1235
      3 C3          4.0129   -3.5953   -2.3969 C.3       1 <0>         0.0609
      4 O1          2.7601   -2.9308   -2.0850 O.3       1 <0>        -0.3515
      5 C4          2.5370   -2.6206   -0.7914 C.2       1 <0>         0.5384
      6 O2          3.3677   -2.8983    0.0526 O.2       1 <0>        -0.4988
      7 C5          1.2948   -1.9495   -0.4031 C.2       1 <0>        -0.2281
      8 C6          1.1982   -0.4900   -0.3744 C.2       1 <0>        -0.0887
      9 C7          0.0021   -0.0041    0.0020 C.2       1 <0>        -0.2540
     10 S1         -0.9932   -1.4419    0.3130 S.3       1 <0>         0.2905
     11 C8          0.1675   -2.6733   -0.0499 C.2       1 <0>         0.1086
     12 N1          0.0079   -4.0492   -0.0001 N.am      1 <0>        -0.6279
     13 C9         -1.1753   -4.5774    0.3707 C.2       1 <0>         0.5262
     14 O3         -2.1004   -3.8487    0.6607 O.2       1 <0>        -0.4620
     15 C10        -1.3489   -6.0734    0.4249 C.3       1 <0>        -0.0754
     16 H1         -0.6378   -6.4961    1.1346 H         1 <0>         0.1023
     17 C11        -1.0981   -6.6665   -0.9630 C.3       1 <0>        -0.1141
     18 C12        -1.2743   -8.1853   -0.9079 C.3       1 <0>        -0.1140
     19 C13        -2.6994   -8.5175   -0.4613 C.3       1 <0>        -0.1209
     20 C14        -2.9503   -7.9244    0.9266 C.3       1 <0>        -0.0970
     21 C15        -2.7740   -6.4056    0.8715 C.3       1 <0>        -0.1115
     22 H2         -3.4851   -5.9828    0.1618 H         1 <0>         0.0763
     23 C16        -3.0211   -5.8214    2.2385 C.2       1 <0>         0.4765
     24 O4         -2.1470   -5.2027    2.7981 O.co2     1 <0>        -0.6355
     25 C17        -0.0183    1.5006    0.0103 C.3       1 <0>        -0.0273
     26 C18         1.4710    1.9102   -0.0017 C.3       1 <0>        -0.1155
     27 C19         2.1276    0.6873   -0.6726 C.3       1 <0>        -0.0591
     28 H3          6.2396   -3.9273   -3.9337 H         1 <0>         0.0573
     29 H4          5.4616   -5.5093   -3.6885 H         1 <0>         0.0584
     30 H5          5.4591   -4.7568   -5.3016 H         1 <0>         0.0644
     31 H6          3.2535   -4.5023   -4.1973 H         1 <0>         0.0745
     32 H7          4.0316   -2.9203   -4.4426 H         1 <0>         0.0735
     33 H8          4.8459   -2.9577   -2.1008 H         1 <0>         0.0688
     34 H9          4.0679   -4.5398   -1.8555 H         1 <0>         0.0695
     35 H10         0.7478   -4.6320   -0.2321 H         1 <0>         0.4131
     36 H11        -1.8091   -6.2437   -1.6727 H         1 <0>         0.0683
     37 H12        -0.0828   -6.4298   -1.2812 H         1 <0>         0.0591
     38 H13        -0.5632   -8.6081   -0.1982 H         1 <0>         0.0634
     39 H14        -1.0956   -8.6079   -1.8967 H         1 <0>         0.0617
     40 H15        -2.8249   -9.5996   -0.4221 H         1 <0>         0.0595
     41 H16        -3.4105   -8.0947   -1.1711 H         1 <0>         0.0606
     42 H17        -2.2392   -8.3472    1.6363 H         1 <0>         0.0559
     43 H18        -3.9656   -8.1611    1.2448 H         1 <0>         0.0745
     44 H19        -0.5238    1.8788   -0.8783 H         1 <0>         0.0817
     45 H20        -0.5067    1.8692    0.9124 H         1 <0>         0.0777
     46 H21         1.6232    2.8104   -0.5971 H         1 <0>         0.0809
     47 H22         1.8462    2.0470    1.0125 H         1 <0>         0.0757
     48 H23         3.1139    0.5068   -0.2452 H         1 <0>         0.0690
     49 H24         2.2061    0.8427   -1.7486 H         1 <0>         0.0787
     50 O5         -4.2122   -5.9882    2.8345 O.co2     1 <0>        -0.7715
@<TRIPOS>BOND
     1    1    2 1
     2    1   28 1
     3    1   29 1
     4    1   30 1
     5    2    3 1
     6    2   31 1
     7    2   32 1
     8    3    4 1
     9    3   33 1
    10    3   34 1
    11    4    5 1
    12    5    6 2
    13    5    7 1
    14    7   11 2
    15    7    8 1
    16    8   27 1
    17    8    9 2
    18    9   10 1
    19    9   25 1
    20   10   11 1
    21   11   12 1
    22   12   13 am
    23   12   35 1
    24   13   14 2
    25   13   15 1
    26   15   16 1
    27   15   21 1
    28   15   17 1
    29   17   18 1
    30   17   36 1
    31   17   37 1
    32   18   19 1
    33   18   38 1
    34   18   39 1
    35   19   20 1
    36   19   40 1
    37   19   41 1
    38   20   21 1
    39   20   42 1
    40   20   43 1
    41   21   22 1
    42   21   23 1
    43   23   24 2
    44   23   50 1
    45   25   26 1
    46   25   44 1
    47   25   45 1
    48   26   27 1
    49   26   46 1
    50   26   47 1
    51   27   48 1
    52   27   49 1
@<TRIPOS>MOLECULE
ZINC13345297
   42    44     0     0     0
SMALL
USER_CHARGES
3-[[2-(6-ethylthieno[3,2-e]pyrimidin-4-yl)sulfanylacetyl]amino]-4-methyl-benzoic acid
@<TRIPOS>ATOM
      1 C1          3.7301   13.9467    0.6622 C.3       1 <0>        -0.1510
      2 C2          3.9215   13.4111   -0.7581 C.3       1 <0>        -0.0437
      3 C3          4.7124   12.1292   -0.7093 C.2       1 <0>        -0.1158
      4 C4          4.2532   10.8740   -0.5964 C.2       1 <0>        -0.1250
      5 C5          5.1994    9.7727   -0.5684 C.ar      1 <0>        -0.1736
      6 C6          6.5559   10.1526   -0.6668 C.ar      1 <0>         0.1303
      7 S1          6.4813   11.9201   -0.7877 S.3       1 <0>         0.1053
      8 N1          7.5233    9.2568   -0.6541 N.ar      1 <0>        -0.4920
      9 C7          7.2425    7.9722   -0.5482 C.ar      1 <0>         0.3317
     10 N2          5.9970    7.5450   -0.4472 N.ar      1 <0>        -0.5393
     11 C8          4.9645    8.3740   -0.4568 C.ar      1 <0>         0.1916
     12 S2          3.3208    7.7531   -0.3256 S.3       1 <0>         0.0746
     13 C9          3.6626    5.9789   -0.2179 C.3       1 <0>        -0.1499
     14 C10         2.3643    5.2237   -0.0956 C.2       1 <0>         0.5183
     15 O1          1.3114    5.8257   -0.0825 O.2       1 <0>        -0.4889
     16 N3          2.3730    3.8793   -0.0007 N.am      1 <0>        -0.6577
     17 C11         1.1667    3.1697   -0.0035 C.ar      1 <0>         0.1184
     18 C12         0.0410    3.7188   -0.5976 C.ar      1 <0>        -0.0894
     19 C13        -1.1590    3.0072   -0.5980 C.ar      1 <0>        -0.0985
     20 C14        -1.2164    1.7442   -0.0045 C.ar      1 <0>        -0.0871
     21 C15        -0.0915    1.2092    0.5886 C.ar      1 <0>        -0.1204
     22 C16         1.0976    1.9147    0.5889 C.ar      1 <0>        -0.1225
     23 C17         2.3232    1.3202    1.2336 C.3       1 <0>        -0.1071
     24 C18        -2.3634    3.5854   -1.2287 C.2       1 <0>         0.4893
     25 O2         -2.3100    4.6822   -1.7479 O.co2     1 <0>        -0.6251
     26 H1          4.7041   14.1377    1.1128 H         1 <0>         0.0588
     27 H2          3.1580   14.8739    0.6269 H         1 <0>         0.0674
     28 H3          3.1919   13.2102    1.2588 H         1 <0>         0.0620
     29 H4          4.4597   14.1476   -1.3547 H         1 <0>         0.0846
     30 H5          2.9475   13.2201   -1.2087 H         1 <0>         0.0946
     31 H6          3.1922   10.6846   -0.5274 H         1 <0>         0.1483
     32 H7          8.0494    7.2544   -0.5393 H         1 <0>         0.2099
     33 H8          4.2821    5.7807    0.6567 H         1 <0>         0.1272
     34 H9          4.1881    5.6550   -1.1163 H         1 <0>         0.1288
     35 H10         3.2154    3.4035    0.0695 H         1 <0>         0.4080
     36 H11         0.0928    4.6940   -1.0588 H         1 <0>         0.1505
     37 H12        -2.1423    1.1882   -0.0062 H         1 <0>         0.1322
     38 H13        -0.1387    0.2340    1.0503 H         1 <0>         0.1207
     39 H14         2.8775    0.7410    0.4950 H         1 <0>         0.0655
     40 H15         2.9562    2.1202    1.6174 H         1 <0>         0.0566
     41 H16         2.0224    0.6692    2.0545 H         1 <0>         0.0677
     42 O3         -3.5209    2.8962   -1.2278 O.co2     1 <0>        -0.7552
@<TRIPOS>BOND
     1    1    2 1
     2    1   26 1
     3    1   27 1
     4    1   28 1
     5    2    3 1
     6    2   29 1
     7    2   30 1
     8    3    7 1
     9    3    4 2
    10    4    5 1
    11    4   31 1
    12    5   11 ar
    13    5    6 ar
    14    6    7 1
    15    6    8 ar
    16    8    9 ar
    17    9   10 ar
    18    9   32 1
    19   10   11 ar
    20   11   12 1
    21   12   13 1
    22   13   14 1
    23   13   33 1
    24   13   34 1
    25   14   15 2
    26   14   16 am
    27   16   17 1
    28   16   35 1
    29   17   22 ar
    30   17   18 ar
    31   18   19 ar
    32   18   36 1
    33   19   20 ar
    34   19   24 1
    35   20   21 ar
    36   20   37 1
    37   21   22 ar
    38   21   38 1
    39   22   23 1
    40   23   39 1
    41   23   40 1
    42   23   41 1
    43   24   25 2
    44   24   42 1
@<TRIPOS>MOLECULE
ZINC32971127
   47    49     0     0     0
SMALL
USER_CHARGES
3-(benzenesulfonamido)-4-[(3R)-3-methyl-1-piperidyl]benzoic acid
@<TRIPOS>ATOM
      1 C1         -6.7632    6.4002   -2.1815 C.3       1 <0>        -0.1477
      2 C2         -6.6783    5.4105   -1.0178 C.3       1 <0>        -0.0893
      3 H1         -7.3590    4.5673   -1.2069 H         1 <0>         0.0792
      4 C3         -7.0792    6.1140    0.2819 C.3       1 <0>        -0.1157
      5 C4         -6.9347    5.1336    1.4492 C.3       1 <0>        -0.1167
      6 C5         -5.4929    4.6236    1.5052 C.3       1 <0>         0.0607
      7 N1         -5.1582    3.9583    0.2396 N.pl3     1 <0>        -0.4934
      8 C6         -5.2439    4.8924   -0.8902 C.3       1 <0>         0.0611
      9 C7         -3.8984    3.3673    0.3042 C.ar      1 <0>         0.0585
     10 C8         -2.7683    4.1591    0.4717 C.ar      1 <0>        -0.1437
     11 C9         -1.5211    3.5789    0.5420 C.ar      1 <0>        -0.0829
     12 C10        -1.3875    2.1914    0.4341 C.ar      1 <0>        -0.0817
     13 C11        -2.5233    1.3928    0.2655 C.ar      1 <0>        -0.1399
     14 C12        -3.7728    1.9791    0.2010 C.ar      1 <0>         0.1643
     15 N2         -4.9124    1.1830    0.0318 N.pl3     1 <0>        -1.0504
     16 S1         -4.9909   -0.3118    0.7401 S.o2      1 <0>         2.6875
     17 O1         -6.3012   -0.8066    0.5001 O.2       1 <0>        -0.9633
     18 O2         -3.8248   -1.0152    0.3344 O.2       1 <0>        -0.9408
     19 C13        -4.8543   -0.0715    2.4803 C.ar      1 <0>        -0.6717
     20 C14        -3.6108   -0.0831    3.0841 C.ar      1 <0>        -0.0091
     21 C15        -3.5032    0.1106    4.4486 C.ar      1 <0>        -0.1382
     22 C16        -4.6399    0.3051    5.2108 C.ar      1 <0>        -0.0653
     23 C17        -5.8838    0.3111    4.6078 C.ar      1 <0>        -0.1476
     24 C18        -5.9909    0.1230    3.2426 C.ar      1 <0>        -0.0192
     25 C19        -0.0525    1.5708    0.5041 C.2       1 <0>         0.4865
     26 O3          0.0620    0.3643    0.4153 O.co2     1 <0>        -0.6200
     27 O4          1.0416    2.3418    0.6610 O.co2     1 <0>        -0.7534
     28 H2         -7.7945    6.7719   -2.2722 H         1 <0>         0.0555
     29 H3         -6.4720    5.8952   -3.1143 H         1 <0>         0.0566
     30 H4         -6.0841    7.2451   -1.9946 H         1 <0>         0.0530
     31 H5         -6.4245    6.9826    0.4457 H         1 <0>         0.0583
     32 H6         -8.1239    6.4508    0.2094 H         1 <0>         0.0618
     33 H7         -7.1811    5.6459    2.3909 H         1 <0>         0.0652
     34 H8         -7.6200    4.2857    1.3029 H         1 <0>         0.0714
     35 H9         -4.8102    5.4711    1.6651 H         1 <0>         0.0367
     36 H10        -5.3891    3.9077    2.3339 H         1 <0>         0.0748
     37 H11        -4.9577    4.3735   -1.8169 H         1 <0>         0.0771
     38 H12        -4.5623    5.7385   -0.7183 H         1 <0>         0.0379
     39 H13        -2.8688    5.2315    0.5515 H         1 <0>         0.1160
     40 H14        -0.6454    4.1965    0.6763 H         1 <0>         0.1327
     41 H15        -2.4239    0.3203    0.1856 H         1 <0>         0.1684
     42 H16        -5.7554    1.5506   -0.5716 H         1 <0>         0.4528
     43 H17        -2.7231   -0.2395    2.4892 H         1 <0>         0.1468
     44 H18        -2.5313    0.1063    4.9196 H         1 <0>         0.1338
     45 H19        -4.5561    0.4528    6.2774 H         1 <0>         0.1278
     46 H20        -6.7718    0.4630    5.2034 H         1 <0>         0.1289
     47 H21        -6.9628    0.1276    2.7715 H         1 <0>         0.1367
@<TRIPOS>BOND
     1    1    2 1
     2    1   28 1
     3    1   29 1
     4    1   30 1
     5    2    3 1
     6    2    8 1
     7    2    4 1
     8    4    5 1
     9    4   31 1
    10    4   32 1
    11    5    6 1
    12    5   33 1
    13    5   34 1
    14    6    7 1
    15    6   35 1
    16    6   36 1
    17    7    8 1
    18    7    9 1
    19    8   37 1
    20    8   38 1
    21    9   14 ar
    22    9   10 ar
    23   10   11 ar
    24   10   39 1
    25   11   12 ar
    26   11   40 1
    27   12   13 ar
    28   12   25 1
    29   13   14 ar
    30   13   41 1
    31   14   15 1
    32   15   16 1
    33   15   42 1
    34   16   17 2
    35   16   18 2
    36   16   19 1
    37   19   24 ar
    38   19   20 ar
    39   20   21 ar
    40   20   43 1
    41   21   22 ar
    42   21   44 1
    43   22   23 ar
    44   22   45 1
    45   23   24 ar
    46   23   46 1
    47   24   47 1
    48   25   26 2
    49   25   27 1
@<TRIPOS>MOLECULE
ZINC40123425
   50    52     0     0     0
SMALL
USER_CHARGES

@<TRIPOS>ATOM
      1 C1         -0.8707    2.3330    1.8396 C.3       1 <0>        -0.1492
      2 C2         -0.6865    0.8751    1.4136 C.3       1 <0>        -0.1237
      3 C3         -2.0423    0.1661    1.4221 C.3       1 <0>         0.0597
      4 O1         -1.8703   -1.1956    1.0242 O.3       1 <0>        -0.3180
      5 C4         -2.9857   -1.9707    0.9788 C.ar      1 <0>         0.1242
      6 C5         -4.2213   -1.4302    1.3048 C.ar      1 <0>        -0.2163
      7 C6         -5.3535   -2.2199    1.2573 C.ar      1 <0>        -0.0828
      8 C7         -5.2563   -3.5483    0.8853 C.ar      1 <0>        -0.1268
      9 C8         -4.0263   -4.0893    0.5604 C.ar      1 <0>        -0.0350
     10 C9         -2.8916   -3.3020    0.6008 C.ar      1 <0>        -0.1450
     11 C10        -3.9239   -5.5373    0.1559 C.3       1 <0>         0.2604
     12 H1         -2.9707   -5.7211   -0.3399 H         1 <0>         0.0735
     13 C11        -4.0580   -6.4266    1.3699 C.2       1 <0>        -0.5004
     14 C12        -5.1469   -7.2039    1.1664 C.2       1 <0>         0.2619
     15 C13        -5.7469   -6.8663   -0.1415 C.2       1 <0>         0.5121
     16 O2         -6.7377   -7.3905   -0.6102 O.2       1 <0>        -0.5393
     17 N1         -5.0335   -5.8915   -0.7370 N.am      1 <0>        -0.7235
     18 O3         -5.6123   -8.1414    2.0238 O.3       1 <0>        -0.6528
     19 C14        -3.1779   -6.4442    2.5427 C.2       1 <0>         0.5056
     20 O4         -3.6144   -6.1345    3.6357 O.2       1 <0>        -0.4771
     21 C15        -1.7625   -6.8373    2.3975 C.ar      1 <0>        -0.1680
     22 C16        -1.2855   -7.2975    1.1661 C.ar      1 <0>        -0.0302
     23 C17         0.0350   -7.6632    1.0350 C.ar      1 <0>        -0.2207
     24 C18         0.8943   -7.5755    2.1249 C.ar      1 <0>         0.1371
     25 C19         0.4240   -7.1189    3.3510 C.ar      1 <0>        -0.1349
     26 C20        -0.8939   -6.7452    3.4891 C.ar      1 <0>        -0.0367
     27 C21         1.3596   -7.0269    4.5288 C.3       1 <0>        -0.0997
     28 O5          2.1954   -7.9370    1.9914 O.3       1 <0>        -0.3156
     29 C22         2.6120   -8.3975    0.7044 C.3       1 <0>         0.0269
     30 H2          0.0952    2.8381    1.8336 H         1 <0>         0.0625
     31 H3         -1.5461    2.8321    1.1447 H         1 <0>         0.0564
     32 H4         -1.2925    2.3675    2.8441 H         1 <0>         0.0573
     33 H5         -0.2648    0.8406    0.4091 H         1 <0>         0.0720
     34 H6         -0.0112    0.3760    2.1086 H         1 <0>         0.0732
     35 H7         -2.4641    0.2006    2.4266 H         1 <0>         0.0597
     36 H8         -2.7177    0.6652    0.7272 H         1 <0>         0.0585
     37 H9         -4.2977   -0.3929    1.5958 H         1 <0>         0.1204
     38 H10        -6.3154   -1.7998    1.5114 H         1 <0>         0.1201
     39 H11        -6.1427   -4.1641    0.8488 H         1 <0>         0.1201
     40 H12        -1.9315   -3.7239    0.3426 H         1 <0>         0.1272
     41 H13        -5.2196   -5.4937   -1.6018 H         1 <0>         0.4065
     42 H14        -1.9522   -7.3663    0.3193 H         1 <0>         0.1367
     43 H15         0.4041   -8.0191    0.0845 H         1 <0>         0.1279
     44 H16        -1.2573   -6.3861    4.4405 H         1 <0>         0.1353
     45 H17         1.8257   -6.0418    4.5465 H         1 <0>         0.0640
     46 H18         0.7990   -7.1802    5.4510 H         1 <0>         0.0638
     47 H19         2.1307   -7.7922    4.4409 H         1 <0>         0.0662
     48 H20         3.6712   -8.6531    0.7353 H         1 <0>         0.0961
     49 H21         2.0334   -9.2793    0.4292 H         1 <0>         0.0553
     50 H22         2.4493   -7.6115   -0.0329 H         1 <0>         0.0551
@<TRIPOS>BOND
     1    1    2 1
     2    1   30 1
     3    1   31 1
     4    1   32 1
     5    2    3 1
     6    2   33 1
     7    2   34 1
     8    3    4 1
     9    3   35 1
    10    3   36 1
    11    4    5 1
    12    5   10 ar
    13    5    6 ar
    14    6    7 ar
    15    6   37 1
    16    7    8 ar
    17    7   38 1
    18    8    9 ar
    19    8   39 1
    20    9   10 ar
    21    9   11 1
    22   10   40 1
    23   11   12 1
    24   11   17 1
    25   11   13 1
    26   13   14 2
    27   13   19 1
    28   14   15 1
    29   14   18 1
    30   15   16 2
    31   15   17 am
    32   17   41 1
    33   19   20 2
    34   19   21 1
    35   21   26 ar
    36   21   22 ar
    37   22   23 ar
    38   22   42 1
    39   23   24 ar
    40   23   43 1
    41   24   25 ar
    42   24   28 1
    43   25   26 ar
    44   25   27 1
    45   26   44 1
    46   27   45 1
    47   27   46 1
    48   27   47 1
    49   28   29 1
    50   29   48 1
    51   29   49 1
    52   29   50 1
@<TRIPOS>MOLECULE
ZINC36833118
   46    47     0     0     0
SMALL
USER_CHARGES

@<TRIPOS>ATOM
      1 C1          2.3453    1.3007    0.1121 C.3       1 <0>        -0.1140
      2 C2          1.4613    0.0814    0.0573 C.ar      1 <0>        -0.1135
      3 C3          0.6780   -0.1550   -1.0569 C.ar      1 <0>        -0.0618
      4 C4         -0.1328   -1.2734   -1.1071 C.ar      1 <0>        -0.1151
      5 C5         -0.1600   -2.1558   -0.0433 C.ar      1 <0>         0.0182
      6 C6          0.6240   -1.9199    1.0705 C.ar      1 <0>        -0.6684
      7 C7          1.4380   -0.8037    1.1189 C.ar      1 <0>         0.0241
      8 C8          2.2966   -0.5493    2.3310 C.3       1 <0>        -0.1661
      9 S1          0.5888   -3.0442    2.4267 S.o2      1 <0>         2.6905
     10 O1          0.1384   -2.3063    3.5544 O.2       1 <0>        -0.9666
     11 O2         -0.0744   -4.2140    1.9674 O.2       1 <0>        -0.9461
     12 N1          2.1549   -3.4808    2.7415 N.pl3     1 <0>        -1.0234
     13 C9          2.8686   -4.2465    1.8117 C.ar      1 <0>         0.0930
     14 C10         2.5871   -4.1370    0.4583 C.ar      1 <0>        -0.1312
     15 C11         3.2935   -4.8938   -0.4582 C.ar      1 <0>        -0.1923
     16 C12         4.2813   -5.7610   -0.0297 C.ar      1 <0>        -0.0822
     17 C13         4.5686   -5.8766    1.3178 C.ar      1 <0>        -0.2374
     18 C14         3.8687   -5.1175    2.2435 C.ar      1 <0>         0.2745
     19 N2          4.1616   -5.2290    3.6081 N.2       1 <0>        -1.1020
     20 S2          5.3495   -6.2639    4.1182 S.o2      1 <0>         2.5291
     21 O3          4.8804   -7.5574    3.7636 O.2       1 <0>        -1.0282
     22 O4          6.5471   -5.7477    3.5537 O.2       1 <0>        -1.0308
     23 C15         5.3813   -6.0838    5.9230 C.3       1 <0>        -0.6384
     24 C16        -1.0447   -3.3745   -0.0977 C.3       1 <0>        -0.1490
     25 C17        -0.9875   -1.5305   -2.3214 C.3       1 <0>        -0.1148
     26 H1          3.3233    1.0594   -0.3042 H         1 <0>         0.0720
     27 H2          1.8919    2.1045   -0.4679 H         1 <0>         0.0645
     28 H3          2.4600    1.6200    1.1479 H         1 <0>         0.0708
     29 H4          0.6993    0.5344   -1.8880 H         1 <0>         0.1253
     30 H5          1.7087   -0.0351    3.0913 H         1 <0>         0.0913
     31 H6          2.6541   -1.4991    2.7289 H         1 <0>         0.0865
     32 H7          3.1481    0.0703    2.0496 H         1 <0>         0.0859
     33 H8          2.5778   -3.2060    3.5701 H         1 <0>         0.4280
     34 H9          1.8159   -3.4607    0.1202 H         1 <0>         0.1114
     35 H10         3.0728   -4.8075   -1.5119 H         1 <0>         0.1053
     36 H11         4.8299   -6.3502   -0.7496 H         1 <0>         0.1035
     37 H12         5.3406   -6.5553    1.6492 H         1 <0>         0.1062
     38 H13         4.4079   -6.3542    6.3323 H         1 <0>         0.1155
     39 H14         6.1457   -6.7394    6.3401 H         1 <0>         0.1006
     40 H15         5.6094   -5.0497    6.1810 H         1 <0>         0.1149
     41 H16        -0.4564   -4.2368   -0.4114 H         1 <0>         0.0965
     42 H17        -1.4660   -3.5620    0.8899 H         1 <0>         0.0945
     43 H18        -1.8516   -3.2063   -0.8110 H         1 <0>         0.0702
     44 H19        -0.4273   -2.1289   -3.0399 H         1 <0>         0.0720
     45 H20        -1.8880   -2.0681   -2.0246 H         1 <0>         0.0732
     46 H21        -1.2653   -0.5806   -2.7780 H         1 <0>         0.0635
@<TRIPOS>BOND
     1    1    2 1
     2    1   26 1
     3    1   27 1
     4    1   28 1
     5    2    7 ar
     6    2    3 ar
     7    3    4 ar
     8    3   29 1
     9    4    5 ar
    10    4   25 1
    11    5    6 ar
    12    5   24 1
    13    6    7 ar
    14    6    9 1
    15    7    8 1
    16    8   30 1
    17    8   31 1
    18    8   32 1
    19    9   10 2
    20    9   11 2
    21    9   12 1
    22   12   13 1
    23   12   33 1
    24   13   18 ar
    25   13   14 ar
    26   14   15 ar
    27   14   34 1
    28   15   16 ar
    29   15   35 1
    30   16   17 ar
    31   16   36 1
    32   17   18 ar
    33   17   37 1
    34   18   19 1
    35   19   20 1
    36   20   21 2
    37   20   22 2
    38   20   23 1
    39   23   38 1
    40   23   39 1
    41   23   40 1
    42   24   41 1
    43   24   42 1
    44   24   43 1
    45   25   44 1
    46   25   45 1
    47   25   46 1
@<TRIPOS>MOLECULE
ZINC00153613
   46    47     0     0     0
SMALL
USER_CHARGES
3,3-dimethyl-5-(2-morpholinophenyl)amino-5-oxo-pentanoic acid
@<TRIPOS>ATOM
      1 C1          5.1942    2.2246   -3.0139 C.3       1 <0>        -0.1567
      2 C2          5.7531    1.9602   -1.6144 C.3       1 <0>        -0.0240
      3 C3          6.0289    3.2929   -0.9152 C.3       1 <0>        -0.1568
      4 C4          4.7344    1.1590   -0.8013 C.3       1 <0>        -0.1307
      5 C5          3.4521    1.9429   -0.6903 C.2       1 <0>         0.5146
      6 O1          3.3619    3.0350   -1.2104 O.2       1 <0>        -0.5021
      7 N1          2.4055    1.4304   -0.0132 N.am      1 <0>        -0.6697
      8 C6          1.1834    2.1162    0.0117 C.ar      1 <0>         0.1824
      9 C7          1.1641    3.5027    0.0215 C.ar      1 <0>        -0.1192
     10 C8         -0.0423    4.1771    0.0451 C.ar      1 <0>        -0.0996
     11 C9         -1.2325    3.4732    0.0590 C.ar      1 <0>        -0.1329
     12 C10        -1.2230    2.0910    0.0450 C.ar      1 <0>        -0.1297
     13 C11        -0.0168    1.4061    0.0261 C.ar      1 <0>         0.0475
     14 N2         -0.0045    0.0073    0.0158 N.pl3     1 <0>        -0.4964
     15 C12        -0.6294   -0.5161   -1.2077 C.3       1 <0>         0.0248
     16 C13        -0.5412   -2.0446   -1.2056 C.3       1 <0>         0.0635
     17 O2         -1.1621   -2.5513   -0.0212 O.3       1 <0>        -0.3853
     18 C14        -0.5781   -2.0625    1.1893 C.3       1 <0>         0.0633
     19 C15        -0.6666   -0.5342    1.2115 C.3       1 <0>         0.0205
     20 C16         7.0550    1.1644   -1.7271 C.3       1 <0>        -0.1506
     21 C17         8.0585    1.9536   -2.5279 C.2       1 <0>         0.4639
     22 O3          7.7627    3.0410   -2.9638 O.co2     1 <0>        -0.6251
     23 H1          4.2667    2.7916   -2.9336 H         1 <0>         0.0631
     24 H2          5.9200    2.7954   -3.5931 H         1 <0>         0.0908
     25 H3          4.9977    1.2752   -3.5120 H         1 <0>         0.0256
     26 H4          6.4271    3.1045    0.0818 H         1 <0>         0.0262
     27 H5          6.7547    3.8637   -1.4945 H         1 <0>         0.0910
     28 H6          5.1015    3.8599   -0.8349 H         1 <0>         0.0627
     29 H7          5.1325    0.9707    0.1957 H         1 <0>         0.0893
     30 H8          4.5379    0.2096   -1.2994 H         1 <0>         0.0900
     31 H9          2.4980    0.5870    0.4569 H         1 <0>         0.4129
     32 H10         2.0917    4.0557    0.0104 H         1 <0>         0.1463
     33 H11        -0.0554    5.2570    0.0524 H         1 <0>         0.1257
     34 H12        -2.1724    4.0049    0.0767 H         1 <0>         0.1204
     35 H13        -2.1544    1.5444    0.0517 H         1 <0>         0.1185
     36 H14        -1.6755   -0.2120   -1.2408 H         1 <0>         0.0475
     37 H15        -0.1074   -0.1226   -2.0799 H         1 <0>         0.0884
     38 H16         0.5053   -2.3488   -1.2266 H         1 <0>         0.0627
     39 H17        -1.0530   -2.4405   -2.0828 H         1 <0>         0.1001
     40 H18         0.4674   -2.3672    1.2380 H         1 <0>         0.0617
     41 H19        -1.1164   -2.4708    2.0447 H         1 <0>         0.0991
     42 H20        -0.1719   -0.1540    2.1052 H         1 <0>         0.0873
     43 H21        -1.7134   -0.2304    1.2170 H         1 <0>         0.0477
     44 H22         7.4532    0.9760   -0.7301 H         1 <0>         0.0604
     45 H23         6.8585    0.2150   -2.2252 H         1 <0>         0.0604
     46 O4          9.2808    1.4485   -2.7570 O.co2     1 <0>        -0.7797
@<TRIPOS>BOND
     1    1    2 1
     2    1   23 1
     3    1   24 1
     4    1   25 1
     5    2    3 1
     6    2    4 1
     7    2   20 1
     8    3   26 1
     9    3   27 1
    10    3   28 1
    11    4    5 1
    12    4   29 1
    13    4   30 1
    14    5    6 2
    15    5    7 am
    16    7    8 1
    17    7   31 1
    18    8   13 ar
    19    8    9 ar
    20    9   10 ar
    21    9   32 1
    22   10   11 ar
    23   10   33 1
    24   11   12 ar
    25   11   34 1
    26   12   13 ar
    27   12   35 1
    28   13   14 1
    29   14   19 1
    30   14   15 1
    31   15   16 1
    32   15   36 1
    33   15   37 1
    34   16   17 1
    35   16   38 1
    36   16   39 1
    37   17   18 1
    38   18   19 1
    39   18   40 1
    40   18   41 1
    41   19   42 1
    42   19   43 1
    43   20   21 1
    44   20   44 1
    45   20   45 1
    46   21   22 2
    47   21   46 1
@<TRIPOS>MOLECULE
ZINC37462696
   36    36     0     0     0
SMALL
USER_CHARGES

@<TRIPOS>ATOM
      1 C1         -0.4211    1.2924    0.2902 C.3       1 <0>        -0.1526
      2 C2         -0.2678   -0.2279    0.2135 C.3       1 <0>        -0.1178
      3 C3          0.5803   -0.7150    1.3901 C.3       1 <0>        -0.1526
      4 C4          0.7336   -2.2354    1.3134 C.3       1 <0>         0.1129
      5 N1          1.5456   -2.7017    2.4401 N.pl3     1 <0>        -1.0020
      6 C5          0.9157   -2.9714    3.7350 C.3       1 <0>         0.0958
      7 S1          3.1755   -2.9241    2.2499 S.o2      1 <0>         2.7722
      8 O1          3.5459   -3.9813    3.1242 O.2       1 <0>        -0.9724
      9 O2          3.4183   -2.9723    0.8506 O.2       1 <0>        -0.9503
     10 N2          3.9250   -1.5592    2.8136 N.pl3     1 <0>        -1.0115
     11 C6          3.7781   -0.3608    2.1387 C.2       1 <0>        -0.0461
     12 C7          3.5180    0.8855    2.6698 C.2       1 <0>        -0.1721
     13 C8          3.4093    1.9506    1.8197 C.2       1 <0>        -0.0830
     14 C9          3.5755    1.6687    0.4661 C.2       1 <0>        -0.1657
     15 S2          3.8827   -0.0870    0.4845 S.3       1 <0>         0.2515
     16 C10         3.5206    2.5472   -0.6351 C.2       1 <0>         0.4956
     17 O3          3.2812    3.8439   -0.4418 O.co2     1 <0>        -0.6787
     18 O4          3.7080    2.0809   -1.8694 O.co2     1 <0>        -0.6934
     19 C11         3.1263    3.3447    2.3170 C.3       1 <0>        -0.0935
     20 H1          0.5628    1.7595    0.2468 H         1 <0>         0.0646
     21 H2         -1.0252    1.6394   -0.5481 H         1 <0>         0.0532
     22 H3         -0.9100    1.5616    1.2264 H         1 <0>         0.0477
     23 H4         -1.2517   -0.6950    0.2568 H         1 <0>         0.0573
     24 H5          0.2212   -0.4970   -0.7228 H         1 <0>         0.0678
     25 H6          1.5642   -0.2480    1.3467 H         1 <0>         0.0753
     26 H7          0.0913   -0.4459    2.3264 H         1 <0>         0.0638
     27 H8         -0.2503   -2.7024    1.3568 H         1 <0>         0.0828
     28 H9          1.2225   -2.5045    0.3772 H         1 <0>         0.0966
     29 H10         0.5163   -3.9855    3.7405 H         1 <0>         0.0599
     30 H11         1.6565   -2.8682    4.5279 H         1 <0>         0.0670
     31 H12         0.1056   -2.2609    3.8999 H         1 <0>         0.0725
     32 H13         4.4670   -1.6002    3.6170 H         1 <0>         0.4211
     33 H14         3.4023    1.0170    3.7355 H         1 <0>         0.1263
     34 H15         4.0671    3.8542    2.5251 H         1 <0>         0.0619
     35 H16         2.5745    3.8969    1.5562 H         1 <0>         0.0992
     36 H17         2.5324    3.2914    3.2295 H         1 <0>         0.0466
@<TRIPOS>BOND
     1    1    2 1
     2    1   20 1
     3    1   21 1
     4    1   22 1
     5    2    3 1
     6    2   23 1
     7    2   24 1
     8    3    4 1
     9    3   25 1
    10    3   26 1
    11    4    5 1
    12    4   27 1
    13    4   28 1
    14    5    6 1
    15    5    7 1
    16    6   29 1
    17    6   30 1
    18    6   31 1
    19    7    8 2
    20    7    9 2
    21    7   10 1
    22   10   11 1
    23   10   32 1
    24   11   15 1
    25   11   12 2
    26   12   13 1
    27   12   33 1
    28   13   14 2
    29   13   19 1
    30   14   15 1
    31   14   16 1
    32   16   17 2
    33   16   18 1
    34   19   34 1
    35   19   35 1
    36   19   36 1
@<TRIPOS>MOLECULE
ZINC13051057
   39    40     0     0     0
SMALL
USER_CHARGES

@<TRIPOS>ATOM
      1 C1         -0.0187    1.5258    0.0104 C.3       1 <0>        -0.1807
      2 C2          0.0021   -0.0041    0.0020 C.3       1 <0>         0.0876
      3 H1          0.5123   -0.3556   -0.8948 H         1 <0>         0.1056
      4 C3          0.7421   -0.5109    1.2415 C.3       1 <0>         0.0595
      5 N1          0.8664   -1.9690    1.1738 N.am      1 <0>        -0.5246
      6 C4         -0.1032   -2.7505    1.7027 C.2       1 <0>         0.5645
      7 O1         -1.0830   -2.2651    2.2370 O.2       1 <0>        -0.5160
      8 C5          0.0699   -4.2093    1.6079 C.ar      1 <0>        -0.1972
      9 C6         -0.8768   -5.0937    2.1236 C.ar      1 <0>        -0.0635
     10 C7         -0.6801   -6.4404    2.0155 C.ar      1 <0>        -0.0939
     11 C8          0.4675   -6.9457    1.3893 C.ar      1 <0>        -0.0889
     12 C9          1.4240   -6.0822    0.8686 C.ar      1 <0>        -0.0713
     13 C10         1.2325   -4.7013    0.9734 C.ar      1 <0>         0.1352
     14 N2          2.1370   -3.8231    0.4801 N.2       1 <0>        -0.5064
     15 C11         1.9573   -2.5286    0.5725 C.2       1 <0>         0.3550
     16 S1          3.1836   -1.4598   -0.1046 S.3       1 <0>        -0.0465
     17 C12         4.4243   -2.5930   -0.7883 C.3       1 <0>        -0.0663
     18 C13         3.8083   -3.3883   -1.9410 C.3       1 <0>        -0.1527
     19 C14         5.6195   -1.7894   -1.3045 C.3       1 <0>        -0.1348
     20 C15         0.6620   -8.4070    1.2823 C.2       1 <0>         0.5198
     21 O2         -0.1765   -9.1704    1.7392 O.co2     1 <0>        -0.6780
     22 O3          1.6615   -8.8523    0.7369 O.co2     1 <0>        -0.6777
     23 O4         -1.3386   -0.4987    0.0122 O.3       1 <0>        -0.5520
     24 H2          1.0039    1.9031    0.0027 H         1 <0>         0.0704
     25 H3         -0.5459    1.8868   -0.8726 H         1 <0>         0.0704
     26 H4         -0.5289    1.8773    0.9072 H         1 <0>         0.0614
     27 H5          1.7350   -0.0630    1.2804 H         1 <0>         0.1034
     28 H6          0.1838   -0.2350    2.1361 H         1 <0>         0.1030
     29 H7         -1.7641   -4.7139    2.6083 H         1 <0>         0.1313
     30 H8         -1.4152   -7.1225    2.4164 H         1 <0>         0.1385
     31 H9          2.3076   -6.4746    0.3872 H         1 <0>         0.1433
     32 H10         4.7571   -3.2798   -0.0100 H         1 <0>         0.1059
     33 H11         3.4755   -2.7016   -2.7193 H         1 <0>         0.0591
     34 H12         4.5538   -4.0692   -2.3518 H         1 <0>         0.0674
     35 H13         2.9568   -3.9608   -1.5732 H         1 <0>         0.0816
     36 H14         6.0583   -1.2227   -0.4832 H         1 <0>         0.0646
     37 H15         6.3650   -2.4703   -1.7153 H         1 <0>         0.0798
     38 H16         5.2867   -1.1026   -2.0827 H         1 <0>         0.0647
     39 H17        -1.8531   -0.2245    0.7836 H         1 <0>         0.3786
@<TRIPOS>BOND
     1    1    2 1
     2    1   24 1
     3    1   25 1
     4    1   26 1
     5    2    3 1
     6    2    4 1
     7    2   23 1
     8    4    5 1
     9    4   27 1
    10    4   28 1
    11    5   15 1
    12    5    6 am
    13    6    7 2
    14    6    8 1
    15    8   13 ar
    16    8    9 ar
    17    9   10 ar
    18    9   29 1
    19   10   11 ar
    20   10   30 1
    21   11   12 ar
    22   11   20 1
    23   12   13 ar
    24   12   31 1
    25   13   14 1
    26   14   15 2
    27   15   16 1
    28   16   17 1
    29   17   18 1
    30   17   19 1
    31   17   32 1
    32   18   33 1
    33   18   34 1
    34   18   35 1
    35   19   36 1
    36   19   37 1
    37   19   38 1
    38   20   21 2
    39   20   22 1
    40   23   39 1
@<TRIPOS>MOLECULE
ZINC49561137
   41    42     0     0     0
SMALL
USER_CHARGES

@<TRIPOS>ATOM
      1 C1          0.9639   -1.2034   -0.0202 C.3       1 <0>        -0.1685
      2 C2         -0.0022   -0.0172    0.0017 C.3       1 <0>         0.1329
      3 C3          0.3134    0.9192   -1.1665 C.3       1 <0>        -0.1660
      4 N1         -1.3779   -0.5054   -0.1217 N.am      1 <0>        -0.6139
      5 C4         -1.7493   -1.3738   -1.2416 C.3       1 <0>         0.1542
      6 C5         -1.5374   -2.8362   -0.8452 C.3       1 <0>        -0.2006
      7 C6         -1.9194   -3.7295   -1.9972 C.2       1 <0>         0.4956
      8 O1         -2.3237   -3.2416   -3.0388 O.co2     1 <0>        -0.6983
      9 O2         -1.8242   -4.9400   -1.8876 O.co2     1 <0>        -0.7035
     10 C7         -2.3018   -0.1558    0.7951 C.2       1 <0>         0.6961
     11 O3         -3.4632   -0.4818    0.6427 O.2       1 <0>        -0.5199
     12 N2         -1.9384    0.5553    1.8808 N.am      1 <0>        -0.6353
     13 C8         -2.8670    0.8207    2.8806 C.2       1 <0>         0.3111
     14 N3         -4.1292    0.4580    2.9407 N.2       1 <0>        -0.5223
     15 C9         -4.9072    0.7864    3.9685 C.2       1 <0>         0.1054
     16 C10        -4.2968    1.5177    4.9357 C.2       1 <0>        -0.2395
     17 S1         -2.6465    1.6795    4.3139 S.3       1 <0>         0.0905
     18 C11        -4.8940    2.0370    6.1993 C.3       1 <0>        -0.0234
     19 C12        -6.4235    1.9340    6.0849 C.3       1 <0>        -0.1129
     20 C13        -6.7873    0.5395    5.5672 C.3       1 <0>        -0.1190
     21 C14        -6.3730    0.3974    4.1011 C.3       1 <0>        -0.0415
     22 H1          1.9901   -0.8366   -0.0015 H         1 <0>         0.0653
     23 H2          0.7869   -1.8323    0.8523 H         1 <0>         0.0605
     24 H3          0.8029   -1.7864   -0.9270 H         1 <0>         0.0770
     25 H4          0.1083    0.5241    0.9413 H         1 <0>         0.0707
     26 H5          0.1195    0.4043   -2.1074 H         1 <0>         0.0706
     27 H6         -0.3165    1.8064   -1.1013 H         1 <0>         0.0567
     28 H7          1.3619    1.2139   -1.1228 H         1 <0>         0.0674
     29 H8         -2.7977   -1.2138   -1.4933 H         1 <0>         0.0868
     30 H9         -1.1282   -1.1379   -2.1058 H         1 <0>         0.0802
     31 H10        -0.4889   -2.9962   -0.5935 H         1 <0>         0.0638
     32 H11        -2.1585   -3.0721    0.0190 H         1 <0>         0.0586
     33 H12        -4.5472    1.4398    7.0426 H         1 <0>         0.0783
     34 H13        -4.6052    3.0783    6.3418 H         1 <0>         0.0768
     35 H14        -6.8744    2.0889    7.0651 H         1 <0>         0.0734
     36 H15        -6.7895    2.6889    5.3889 H         1 <0>         0.0685
     37 H16        -6.2710   -0.2132    6.1631 H         1 <0>         0.0667
     38 H17        -7.8636    0.3910    5.6547 H         1 <0>         0.0733
     39 H18        -6.9834    1.0561    3.4835 H         1 <0>         0.0822
     40 H19        -6.5075   -0.6359    3.7814 H         1 <0>         0.0854
     41 H20        -1.0289    0.8819    1.9645 H         1 <0>         0.4167
@<TRIPOS>BOND
     1    1    2 1
     2    1   22 1
     3    1   23 1
     4    1   24 1
     5    2    3 1
     6    2    4 1
     7    2   25 1
     8    3   26 1
     9    3   27 1
    10    3   28 1
    11    4    5 1
    12    4   10 am
    13    5    6 1
    14    5   29 1
    15    5   30 1
    16    6    7 1
    17    6   31 1
    18    6   32 1
    19    7    8 2
    20    7    9 1
    21   10   11 2
    22   10   12 am
    23   12   13 1
    24   12   41 1
    25   13   17 1
    26   13   14 2
    27   14   15 1
    28   15   21 1
    29   15   16 2
    30   16   17 1
    31   16   18 1
    32   18   19 1
    33   18   33 1
    34   18   34 1
    35   19   20 1
    36   19   35 1
    37   19   36 1
    38   20   21 1
    39   20   37 1
    40   20   38 1
    41   21   39 1
    42   21   40 1
@<TRIPOS>MOLECULE
ZINC61591958
   28    29     0     0     0
SMALL
USER_CHARGES

@<TRIPOS>ATOM
      1 C1         -0.0187    1.5258    0.0104 C.3       1 <0>        -0.1637
      2 C2          0.0021   -0.0041    0.0020 C.3       1 <0>         0.2454
      3 H1         -1.0205   -0.3814    0.0098 H         1 <0>         0.1316
      4 C3          0.7309   -0.5033    1.2229 C.2       1 <0>        -0.1738
      5 C4          0.2221   -0.9785    2.3854 C.2       1 <0>        -0.1333
      6 C5          1.0908   -1.3857    3.3812 C.2       1 <0>        -0.1446
      7 C6          2.4269   -1.2970    3.1640 C.2       1 <0>        -0.1533
      8 S1          2.4885   -0.6292    1.5095 S.3       1 <0>         0.1860
      9 Cl1         3.7369   -1.7278    4.2186 Cl        1 <0>         0.0028
     10 N1          0.6878   -0.4765   -1.2033 N.am      1 <0>        -0.5356
     11 C7          1.9655   -0.2100   -1.5400 C.2       1 <0>         0.6491
     12 O1          2.7531    0.4634   -0.8993 O.2       1 <0>        -0.5466
     13 N2          2.2139   -0.8246   -2.7149 N.am      1 <0>        -0.5470
     14 H2          3.0514   -0.8114   -3.2040 H         1 <0>         0.4525
     15 N3          1.0392   -1.4861   -3.0987 N.2       1 <0>        -0.2931
     16 C8          0.1391   -1.2734   -2.1825 C.2       1 <0>         0.2496
     17 S2         -1.5086   -1.8976   -2.1960 S.3       1 <0>         0.0648
     18 C9         -1.6008   -2.8597   -3.7311 C.3       1 <0>        -0.1685
     19 C10        -2.9776   -3.4569   -3.8677 C.2       1 <0>         0.5156
     20 O2         -3.8187   -3.2525   -3.0090 O.co2     1 <0>        -0.6728
     21 O3         -3.2505   -4.1446   -4.8368 O.co2     1 <0>        -0.6724
     22 H3          1.0039    1.9031    0.0027 H         1 <0>         0.0772
     23 H4         -0.5459    1.8868   -0.8726 H         1 <0>         0.0744
     24 H5         -0.5289    1.8773    0.9072 H         1 <0>         0.0841
     25 H6         -0.8462   -1.0380    2.5322 H         1 <0>         0.1452
     26 H7          0.7115   -1.7680    4.3173 H         1 <0>         0.1381
     27 H8         -1.4018   -2.2072   -4.5813 H         1 <0>         0.0943
     28 H9         -0.8593   -3.6582   -3.7046 H         1 <0>         0.0940
@<TRIPOS>BOND
     1    1    2 1
     2    1   22 1
     3    1   23 1
     4    1   24 1
     5    2    3 1
     6    2    4 1
     7    2   10 1
     8    4    8 1
     9    4    5 2
    10    5    6 1
    11    5   25 1
    12    6    7 2
    13    6   26 1
    14    7    8 1
    15    7    9 1
    16   10   16 1
    17   10   11 am
    18   11   12 2
    19   11   13 am
    20   13   14 1
    21   13   15 1
    22   15   16 2
    23   16   17 1
    24   17   18 1
    25   18   19 1
    26   18   27 1
    27   18   28 1
    28   19   20 2
    29   19   21 1
@<TRIPOS>MOLECULE
ZINC02484062
   46    51     0     0     0
SMALL
USER_CHARGES
(2-chlorophenyl)-dioxo-BLAHcarboxylic acid
@<TRIPOS>ATOM
      1 C1         -0.0126    1.0758    0.0080 C.ar      1 <0>        -0.1335
      2 C2          1.1820    1.7721    0.0003 C.ar      1 <0>        -0.1184
      3 C3          1.1724    3.1632    0.0377 C.ar      1 <0>        -0.0868
      4 C4         -0.0264    3.7982    0.0555 C.ar      1 <0>        -0.0537
      5 C5         -1.2383    3.1165    0.0176 C.ar      1 <0>        -0.0956
      6 C6         -1.2286    1.7410    0.0174 C.ar      1 <0>        -0.1115
      7 C7         -2.5403    3.9149   -0.1177 C.3       1 <0>         0.0263
      8 C8         -2.1641    4.8564   -1.2993 C.ar      1 <0>        -0.0950
      9 C9         -2.9024    4.9763   -2.4336 C.ar      1 <0>        -0.1150
     10 C10        -2.5114    5.9190   -3.3792 C.ar      1 <0>        -0.1271
     11 C11        -1.3948    6.7026   -3.1530 C.ar      1 <0>        -0.1259
     12 C12        -0.6366    6.5496   -2.0021 C.ar      1 <0>        -0.0790
     13 C13        -1.0126    5.6065   -1.0775 C.ar      1 <0>        -0.0500
     14 C14        -0.2159    5.3263    0.1912 C.3       1 <0>         0.0062
     15 C15        -1.0968    5.2733    1.4044 C.3       1 <0>        -0.1000
     16 H1         -0.8411    4.3446    1.9146 H         1 <0>         0.1050
     17 C16        -2.5694    5.0388    0.9199 C.3       1 <0>        -0.1360
     18 H2         -2.9161    5.9534    0.4388 H         1 <0>         0.1250
     19 C17        -3.2101    4.9288    2.2572 C.2       1 <0>         0.5619
     20 O1         -4.1242    4.2042    2.5875 O.2       1 <0>        -0.4659
     21 N1         -2.5294    5.8357    3.0332 N.am      1 <0>        -0.5733
     22 C18        -1.3455    6.2489    2.4666 C.2       1 <0>         0.5520
     23 O2         -0.6566    7.1961    2.7794 O.2       1 <0>        -0.3883
     24 C19        -2.9939    6.2936    4.2748 C.ar      1 <0>         0.1326
     25 C20        -2.6478    5.6202    5.4382 C.ar      1 <0>        -0.0906
     26 C21        -3.1067    6.0733    6.6596 C.ar      1 <0>        -0.1074
     27 C22        -3.9099    7.1971    6.7249 C.ar      1 <0>        -0.1005
     28 C23        -4.2565    7.8709    5.5686 C.ar      1 <0>        -0.1058
     29 C24        -3.7965    7.4253    4.3434 C.ar      1 <0>        -0.0230
     30 Cl1        -4.2263    8.2753    2.8921 Cl        1 <0>        -0.0551
     31 C25         1.0417    6.1420    0.3467 C.2       1 <0>         0.4843
     32 O3          1.2042    6.8193    1.3340 O.co2     1 <0>        -0.5928
     33 H3          0.0021   -0.0041    0.0020 H         1 <0>         0.1160
     34 H4          2.1200    1.2379   -0.0350 H         1 <0>         0.1212
     35 H5          2.0958    3.7232    0.0518 H         1 <0>         0.1433
     36 H6         -2.1556    1.1870    0.0285 H         1 <0>         0.1221
     37 H7         -3.4492    3.3226   -0.2239 H         1 <0>         0.1311
     38 H8         -3.7706    4.3552   -2.5973 H         1 <0>         0.1244
     39 H9         -3.0800    6.0389   -4.2895 H         1 <0>         0.1180
     40 H10        -1.1090    7.4450   -3.8835 H         1 <0>         0.1178
     41 H11         0.2366    7.1629   -1.8355 H         1 <0>         0.1417
     42 H12        -2.0206    4.7424    5.3884 H         1 <0>         0.1357
     43 H13        -2.8375    5.5494    7.5649 H         1 <0>         0.1362
     44 H14        -4.2670    7.5494    7.6814 H         1 <0>         0.1367
     45 H15        -4.8836    8.7485    5.6227 H         1 <0>         0.1395
     46 O4          1.9813    6.1161   -0.6115 O.co2     1 <0>        -0.7466
@<TRIPOS>BOND
     1    1    6 ar
     2    1    2 ar
     3    1   33 1
     4    2    3 ar
     5    2   34 1
     6    3    4 ar
     7    3   35 1
     8    4   14 1
     9    4    5 ar
    10    5    6 ar
    11    5    7 1
    12    6   36 1
    13    7   17 1
    14    7    8 1
    15    7   37 1
    16    8   13 ar
    17    8    9 ar
    18    9   10 ar
    19    9   38 1
    20   10   11 ar
    21   10   39 1
    22   11   12 ar
    23   11   40 1
    24   12   13 ar
    25   12   41 1
    26   13   14 1
    27   14   15 1
    28   14   31 1
    29   15   16 1
    30   15   22 1
    31   15   17 1
    32   17   18 1
    33   17   19 1
    34   19   20 2
    35   19   21 am
    36   21   22 am
    37   21   24 1
    38   22   23 2
    39   24   29 ar
    40   24   25 ar
    41   25   26 ar
    42   25   42 1
    43   26   27 ar
    44   26   43 1
    45   27   28 ar
    46   27   44 1
    47   28   29 ar
    48   28   45 1
    49   29   30 1
    50   31   32 2
    51   31   46 1
@<TRIPOS>MOLECULE
ZINC27230703
   43    46     0     0     0
SMALL
USER_CHARGES
(5Z)-2-[(4-acetylphenyl)amino]-5-[(1-methylindol-3-yl)methylene]thiazol-4-one
@<TRIPOS>ATOM
      1 C1          2.4681    5.2684    0.7625 C.3       1 <0>        -0.2047
      2 C2          2.4008    3.9279    0.0772 C.2       1 <0>         0.4020
      3 O1          3.3865    3.4733   -0.4642 O.2       1 <0>        -0.4894
      4 C3          1.1422    3.1722    0.0648 C.ar      1 <0>        -0.2423
      5 C4          1.0774    1.9260   -0.5716 C.ar      1 <0>        -0.0399
      6 C5         -0.0957    1.2266   -0.5811 C.ar      1 <0>        -0.1643
      7 C6         -1.2277    1.7530    0.0362 C.ar      1 <0>         0.2081
      8 C7         -1.1664    2.9892    0.6747 C.ar      1 <0>        -0.1793
      9 C8          0.0025    3.6955    0.6891 C.ar      1 <0>        -0.0513
     10 N1         -2.4221    1.0396    0.0192 N.2       1 <0>        -0.5803
     11 C9         -3.6196    1.7026    0.1321 C.2       1 <0>         0.4531
     12 N2         -3.8369    3.0073    0.1630 N.2       1 <0>        -0.7087
     13 C10        -5.0443    3.5185    0.2704 C.2       1 <0>         0.5352
     14 O2         -5.2324    4.7254    0.2928 O.2       1 <0>        -0.5360
     15 C11        -6.1596    2.5555    0.3695 C.2       1 <0>        -0.2139
     16 C12        -7.4973    2.7797    0.4930 C.2       1 <0>         0.0389
     17 C13        -8.4232    1.6512    0.5736 C.2       1 <0>        -0.1605
     18 C14        -8.1003    0.3225    0.5395 C.2       1 <0>         0.0919
     19 N3         -9.2280   -0.4244    0.6399 N.pl3     1 <0>        -0.4771
     20 C15       -10.3377    0.3895    0.7441 C.ar      1 <0>         0.0903
     21 C16        -9.8904    1.7202    0.7144 C.ar      1 <0>        -0.0830
     22 C17       -10.8051    2.7663    0.7956 C.ar      1 <0>        -0.0702
     23 C18       -12.1497    2.4892    0.9174 C.ar      1 <0>        -0.1459
     24 C19       -12.5928    1.1754    0.9529 C.ar      1 <0>        -0.1042
     25 C20       -11.6985    0.1302    0.8675 C.ar      1 <0>        -0.1280
     26 C21        -9.2632   -1.8890    0.6376 C.3       1 <0>         0.0710
     27 S1         -5.2602    1.0123    0.2806 S.3       1 <0>        -0.1398
     28 H1          1.4846    5.5107    1.1914 H         1 <0>         0.0842
     29 H2          2.7494    6.0404    0.0311 H         1 <0>         0.0877
     30 H3          3.2194    5.2325    1.5651 H         1 <0>         0.0872
     31 H4          1.9535    1.5191   -1.0544 H         1 <0>         0.1213
     32 H5         -0.1467    0.2659   -1.0718 H         1 <0>         0.1203
     33 H6         -2.0456    3.3920    1.1554 H         1 <0>         0.1443
     34 H7          0.0480    4.6560    1.1806 H         1 <0>         0.1191
     35 H8         -7.8810    3.8099    0.5321 H         1 <0>         0.1489
     36 H9         -7.0992   -0.0721    0.4472 H         1 <0>         0.1832
     37 H10       -10.4624    3.7901    0.7679 H         1 <0>         0.1252
     38 H11       -12.8613    3.2987    0.9860 H         1 <0>         0.1224
     39 H12       -13.6487    0.9695    1.0486 H         1 <0>         0.1231
     40 H13       -12.0541   -0.8891    0.8961 H         1 <0>         0.1170
     41 H14       -10.3045   -2.2309    0.7316 H         1 <0>         0.0862
     42 H15        -8.6739   -2.2712    1.4841 H         1 <0>         0.0791
     43 H16        -8.8376   -2.2645   -0.3047 H         1 <0>         0.0791
@<TRIPOS>BOND
     1    1    2 1
     2    1   28 1
     3    1   29 1
     4    1   30 1
     5    2    3 2
     6    2    4 1
     7    4    9 ar
     8    4    5 ar
     9    5    6 ar
    10    5   31 1
    11    6    7 ar
    12    6   32 1
    13    7    8 ar
    14    7   10 1
    15    8    9 ar
    16    8   33 1
    17    9   34 1
    18   10   11 1
    19   11   27 1
    20   11   12 2
    21   12   13 1
    22   13   14 2
    23   13   15 1
    24   15   16 2
    25   15   27 1
    26   16   17 1
    27   16   35 1
    28   17   21 1
    29   17   18 2
    30   18   19 1
    31   18   36 1
    32   19   20 1
    33   19   26 1
    34   20   25 ar
    35   20   21 ar
    36   21   22 ar
    37   22   23 ar
    38   22   37 1
    39   23   24 ar
    40   23   38 1
    41   24   25 ar
    42   24   39 1
    43   25   40 1
    44   26   41 1
    45   26   42 1
    46   26   43 1
@<TRIPOS>MOLECULE
ZINC04062681
   44    47     0     0     0
SMALL
USER_CHARGES

@<TRIPOS>ATOM
      1 C1         -0.0184    1.5028    0.0103 C.3       1 <0>        -0.0893
      2 C2          0.0021   -0.0041    0.0020 C.ar      1 <0>        -0.1955
      3 C3          0.0057   -0.6874   -1.2004 C.ar      1 <0>        -0.0682
      4 C4          0.0244   -2.0681   -1.2116 C.ar      1 <0>        -0.2596
      5 C5          0.0396   -2.7708   -0.0132 C.ar      1 <0>         0.2768
      6 C6          0.0359   -2.0814    1.1925 C.ar      1 <0>        -0.1503
      7 C7          0.0229   -0.7002    1.1965 C.ar      1 <0>        -0.0776
      8 C8          0.0518   -2.8394    2.4949 C.3       1 <0>        -0.0787
      9 N1          0.0581   -4.1674   -0.0209 N.2       1 <0>        -1.0811
     10 S1          0.0619   -4.9875   -1.4596 S.o2      1 <0>         2.5929
     11 O1         -1.1901   -4.7266   -2.0791 O.2       1 <0>        -1.0218
     12 O2          1.3004   -4.6936   -2.0913 O.2       1 <0>        -1.0232
     13 C9          0.0866   -6.7076   -1.0786 C.ar      1 <0>        -0.5955
     14 C10         1.2962   -7.3611   -0.9303 C.ar      1 <0>        -0.0017
     15 C11         1.3311   -8.7118   -0.6307 C.ar      1 <0>        -0.0906
     16 C12         0.1421   -9.4191   -0.4771 C.ar      1 <0>        -0.0898
     17 C13        -1.0881   -8.7547   -0.6278 C.ar      1 <0>        -0.1476
     18 C14        -1.1049   -7.3947   -0.9241 C.ar      1 <0>         0.0275
     19 C15        -2.3553   -9.4980   -0.4666 C.2       1 <0>         0.4348
     20 O3         -3.4182   -8.9241   -0.5970 O.2       1 <0>        -0.4240
     21 C16        -2.3277  -10.9408   -0.1468 C.ar      1 <0>        -0.1112
     22 C17        -3.5164  -11.6487    0.0061 C.ar      1 <0>        -0.0705
     23 C18        -3.4812  -12.9996    0.3051 C.ar      1 <0>        -0.0991
     24 C19        -2.2714  -13.6527    0.4539 C.ar      1 <0>        -0.1030
     25 C20        -1.0802  -12.9639    0.3056 C.ar      1 <0>        -0.0693
     26 C21        -1.0974  -11.6052    0.0040 C.ar      1 <0>        -0.1185
     27 C22         0.1698  -10.8619   -0.1576 C.2       1 <0>         0.4368
     28 O4          1.2327  -11.4360   -0.0276 O.2       1 <0>        -0.4286
     29 H1          1.0042    1.8801    0.0026 H         1 <0>         0.0494
     30 H2         -0.5455    1.8639   -0.8728 H         1 <0>         0.0499
     31 H3         -0.5286    1.8543    0.9071 H         1 <0>         0.0504
     32 H4         -0.0065   -0.1406   -2.1317 H         1 <0>         0.1005
     33 H5          0.0269   -2.6011   -2.1509 H         1 <0>         0.0962
     34 H6          0.0244   -0.1634    2.1336 H         1 <0>         0.1036
     35 H7          1.0832   -3.0085    2.8043 H         1 <0>         0.0463
     36 H8         -0.4663   -2.2598    3.2590 H         1 <0>         0.0371
     37 H9         -0.4499   -3.7980    2.3635 H         1 <0>         0.0712
     38 H10         2.2197   -6.8139   -1.0495 H         1 <0>         0.1532
     39 H11         2.2792   -9.2162   -0.5165 H         1 <0>         0.1488
     40 H12        -2.0462   -6.8774   -1.0371 H         1 <0>         0.1574
     41 H13        -4.4646  -11.1446   -0.1080 H         1 <0>         0.1447
     42 H14        -4.4045  -13.5471    0.4234 H         1 <0>         0.1373
     43 H15        -2.2561  -14.7070    0.6875 H         1 <0>         0.1368
     44 H16        -0.1388  -13.4799    0.4235 H         1 <0>         0.1431
@<TRIPOS>BOND
     1    1    2 1
     2    1   29 1
     3    1   30 1
     4    1   31 1
     5    2    7 ar
     6    2    3 ar
     7    3    4 ar
     8    3   32 1
     9    4    5 ar
    10    4   33 1
    11    5    6 ar
    12    5    9 1
    13    6    7 ar
    14    6    8 1
    15    7   34 1
    16    8   35 1
    17    8   36 1
    18    8   37 1
    19    9   10 1
    20   10   11 2
    21   10   12 2
    22   10   13 1
    23   13   18 ar
    24   13   14 ar
    25   14   15 ar
    26   14   38 1
    27   15   16 ar
    28   15   39 1
    29   16   27 1
    30   16   17 ar
    31   17   18 ar
    32   17   19 1
    33   18   40 1
    34   19   20 2
    35   19   21 1
    36   21   26 ar
    37   21   22 ar
    38   22   23 ar
    39   22   41 1
    40   23   24 ar
    41   23   42 1
    42   24   25 ar
    43   24   43 1
    44   25   26 ar
    45   25   44 1
    46   26   27 1
    47   27   28 2
@<TRIPOS>MOLECULE
ZINC44244604
   37    38     0     0     0
SMALL
USER_CHARGES

@<TRIPOS>ATOM
      1 C1         -0.0187    1.5258    0.0104 C.3       1 <0>        -0.1502
      2 C2          0.0021   -0.0041    0.0020 C.3       1 <0>        -0.1120
      3 C3         -1.4333   -0.5336    0.0129 C.3       1 <0>        -0.0343
      4 H1         -1.9862   -0.1019   -0.8214 H         1 <0>         0.0973
      5 C4         -2.1103   -0.1453    1.3289 C.3       1 <0>        -0.1381
      6 C5         -1.4159   -2.0348   -0.1192 C.ar      1 <0>        -0.1393
      7 C6         -0.7743   -2.8050    0.8310 C.ar      1 <0>        -0.0762
      8 C7         -0.7575   -4.1823    0.7103 C.ar      1 <0>        -0.2230
      9 C8         -1.3829   -4.7935   -0.3612 C.ar      1 <0>        -0.0713
     10 C9         -2.0265   -4.0294   -1.3145 C.ar      1 <0>        -0.2633
     11 C10        -2.0499   -2.6456   -1.1935 C.ar      1 <0>         0.2813
     12 N1         -2.7045   -1.8700   -2.1531 N.2       1 <0>        -1.0817
     13 S1         -3.4598   -2.6002   -3.4332 S.o2      1 <0>         2.6011
     14 O1         -2.4391   -3.2023   -4.2173 O.2       1 <0>        -1.0229
     15 O2         -4.5448   -3.3430   -2.8946 O.2       1 <0>        -1.0239
     16 C11        -4.1651   -1.3221   -4.4200 C.ar      1 <0>        -0.6620
     17 C12        -5.4549   -0.8766   -4.1745 C.ar      1 <0>         0.0504
     18 C13        -5.9690    0.1314   -4.9768 C.ar      1 <0>        -0.1722
     19 C14        -5.1830    0.6546   -5.9876 C.ar      1 <0>         0.1644
     20 N2         -3.9602    0.2057   -6.1916 N.ar      1 <0>        -0.4902
     21 C15        -3.4375   -0.7474   -5.4447 C.ar      1 <0>         0.2058
     22 Br1        -7.7218    0.7816   -4.6926 Br        1 <0>        -0.0355
     23 H2          1.0039    1.9031    0.0027 H         1 <0>         0.0434
     24 H3         -0.5459    1.8868   -0.8726 H         1 <0>         0.0519
     25 H4         -0.5289    1.8773    0.9072 H         1 <0>         0.0511
     26 H5          0.5123   -0.3556   -0.8948 H         1 <0>         0.0587
     27 H6          0.5293   -0.3651    0.8851 H         1 <0>         0.0515
     28 H7         -2.1228    0.9405    1.4244 H         1 <0>         0.0450
     29 H8         -3.1329   -0.5225    1.3366 H         1 <0>         0.0500
     30 H9         -1.5574   -0.5770    2.1631 H         1 <0>         0.0442
     31 H10        -0.2850   -2.3310    1.6690 H         1 <0>         0.1028
     32 H11        -0.2545   -4.7822    1.4543 H         1 <0>         0.0994
     33 H12        -1.3676   -5.8695   -0.4527 H         1 <0>         0.0998
     34 H13        -2.5144   -4.5073   -2.1512 H         1 <0>         0.0951
     35 H14        -6.0454   -1.3045   -3.3778 H         1 <0>         0.1576
     36 H15        -5.5755    1.4394   -6.6172 H         1 <0>         0.1672
     37 H16        -2.4306   -1.0859   -5.6392 H         1 <0>         0.1781
@<TRIPOS>BOND
     1    1    2 1
     2    1   23 1
     3    1   24 1
     4    1   25 1
     5    2    3 1
     6    2   26 1
     7    2   27 1
     8    3    4 1
     9    3    5 1
    10    3    6 1
    11    5   28 1
    12    5   29 1
    13    5   30 1
    14    6   11 ar
    15    6    7 ar
    16    7    8 ar
    17    7   31 1
    18    8    9 ar
    19    8   32 1
    20    9   10 ar
    21    9   33 1
    22   10   11 ar
    23   10   34 1
    24   11   12 1
    25   12   13 1
    26   13   14 2
    27   13   15 2
    28   13   16 1
    29   16   21 ar
    30   16   17 ar
    31   17   18 ar
    32   17   35 1
    33   18   19 ar
    34   18   22 1
    35   19   20 ar
    36   19   36 1
    37   20   21 ar
    38   21   37 1
@<TRIPOS>MOLECULE
ZINC62554588
   42    44     0     0     0
SMALL
USER_CHARGES

@<TRIPOS>ATOM
      1 C1          0.0127   -1.6050    2.4879 C.3       1 <0>        -0.1425
      2 C2          0.8596   -1.9808    1.2704 C.3       1 <0>         0.0702
      3 H1          1.1578   -3.0267    1.3431 H         1 <0>         0.0574
      4 C3          0.0405   -1.7697   -0.0081 C.3       1 <0>         0.1192
      5 N1          0.9300   -1.9561   -1.1653 N.pl3     1 <0>        -0.6637
      6 C4          2.2050   -1.2216   -1.1831 C.3       1 <0>         0.1386
      7 H2          2.0132   -0.1564   -1.3123 H         1 <0>         0.0539
      8 C5          2.9187   -1.4594    0.1525 C.3       1 <0>         0.0528
      9 O1          2.0250   -1.1540    1.2258 O.3       1 <0>        -0.3850
     10 C6          3.0772   -1.7311   -2.3322 C.3       1 <0>        -0.1508
     11 C7          0.5741   -2.8076   -2.2182 C.ar      1 <0>         0.0621
     12 C8          0.8468   -4.1666   -2.1346 C.ar      1 <0>        -0.0814
     13 C9          0.4962   -5.0063   -3.1732 C.ar      1 <0>        -0.1746
     14 C10        -0.1296   -4.4919   -4.3010 C.ar      1 <0>         0.2765
     15 C11        -0.4028   -3.1330   -4.3844 C.ar      1 <0>        -0.2572
     16 C12        -0.0568   -2.2940   -3.3435 C.ar      1 <0>        -0.0665
     17 N2         -0.4847   -5.3432   -5.3542 N.2       1 <0>        -1.0860
     18 S1         -1.2310   -4.7296   -6.6991 S.o2      1 <0>         2.6264
     19 O2         -2.5070   -4.2658   -6.2796 O.2       1 <0>        -1.0179
     20 O3         -0.2851   -3.8833   -7.3380 O.2       1 <0>        -1.0196
     21 C13        -1.5208   -6.0785   -7.7951 C.2       1 <0>        -0.6597
     22 C14        -2.6027   -6.8899   -7.8820 C.2       1 <0>        -0.0401
     23 C15        -2.6120   -7.8962   -8.8302 C.2       1 <0>        -0.1602
     24 C16        -1.5372   -8.0410   -9.6452 C.2       1 <0>        -0.1176
     25 S2         -0.4686   -6.7255   -9.0840 S.3       1 <0>         0.2001
     26 Cl1        -1.2725   -9.2001  -10.9101 Cl        1 <0>         0.0125
     27 H3         -0.2852   -0.5591    2.4144 H         1 <0>         0.0618
     28 H4         -0.8766   -2.2346    2.5202 H         1 <0>         0.0707
     29 H5          0.5963   -1.7537    3.3964 H         1 <0>         0.0601
     30 H6         -0.7712   -2.4961   -0.0482 H         1 <0>         0.0768
     31 H7         -0.3693   -0.7597   -0.0189 H         1 <0>         0.0473
     32 H8          3.2251   -2.5032    0.2208 H         1 <0>         0.0502
     33 H9          3.7966   -0.8166    0.2157 H         1 <0>         0.0913
     34 H10         2.5959   -1.5020   -3.2830 H         1 <0>         0.0662
     35 H11         4.0518   -1.2447   -2.2919 H         1 <0>         0.0568
     36 H12         3.2054   -2.8097   -2.2405 H         1 <0>         0.0642
     37 H13         1.3335   -4.5667   -1.2574 H         1 <0>         0.1011
     38 H14         0.7089   -6.0632   -3.1085 H         1 <0>         0.1122
     39 H15        -0.8895   -2.7328   -5.2615 H         1 <0>         0.0961
     40 H16        -0.2729   -1.2377   -3.4066 H         1 <0>         0.1002
     41 H17        -3.4451   -6.7527   -7.2202 H         1 <0>         0.1526
     42 H18        -3.4615   -8.5570   -8.9203 H         1 <0>         0.1453
@<TRIPOS>BOND
     1    1    2 1
     2    1   27 1
     3    1   28 1
     4    1   29 1
     5    2    3 1
     6    2    9 1
     7    2    4 1
     8    4    5 1
     9    4   30 1
    10    4   31 1
    11    5    6 1
    12    5   11 1
    13    6    7 1
    14    6    8 1
    15    6   10 1
    16    8    9 1
    17    8   32 1
    18    8   33 1
    19   10   34 1
    20   10   35 1
    21   10   36 1
    22   11   16 ar
    23   11   12 ar
    24   12   13 ar
    25   12   37 1
    26   13   14 ar
    27   13   38 1
    28   14   15 ar
    29   14   17 1
    30   15   16 ar
    31   15   39 1
    32   16   40 1
    33   17   18 1
    34   18   19 2
    35   18   20 2
    36   18   21 1
    37   21   25 1
    38   21   22 2
    39   22   23 1
    40   22   41 1
    41   23   24 2
    42   23   42 1
    43   24   25 1
    44   24   26 1
@<TRIPOS>MOLECULE
ZINC65196153
   43    45     0     0     0
SMALL
USER_CHARGES

@<TRIPOS>ATOM
      1 C1         -0.0187    1.5258    0.0104 C.3       1 <0>        -0.1359
      2 C2          0.0021   -0.0041    0.0020 C.3       1 <0>        -0.1480
      3 C3         -1.4117   -0.5257    0.0127 C.2       1 <0>         0.5181
      4 O1         -2.3441    0.2498    0.0258 O.2       1 <0>        -0.5421
      5 N1         -1.6400   -1.8540    0.0078 N.am      1 <0>        -0.6143
      6 C4         -3.0155   -2.3741    0.0120 C.3       1 <0>         0.1168
      7 C5         -3.2533   -3.1201   -1.3100 C.3       1 <0>        -0.0584
      8 C6         -2.0513   -3.9548   -1.6117 C.2       1 <0>        -0.1366
      9 C7         -0.8078   -3.8575   -1.0680 C.2       1 <0>        -0.1687
     10 C8          0.1498   -4.7585   -1.5309 C.2       1 <0>        -0.0301
     11 C9         -0.1809   -5.6741   -2.4702 C.2       1 <0>        -0.6661
     12 S1         -1.9039   -5.3003   -2.7578 S.3       1 <0>         0.1621
     13 S2          0.8262   -6.9122   -3.2168 S.o2      1 <0>         2.6289
     14 O2          0.2313   -7.2180   -4.4706 O.2       1 <0>        -1.0182
     15 O3          2.1706   -6.4672   -3.0998 O.2       1 <0>        -1.0179
     16 N2          0.6964   -8.2758   -2.2862 N.2       1 <0>        -1.0772
     17 C10         1.3947   -9.4324   -2.6407 C.ar      1 <0>         0.2909
     18 C11         2.2029   -9.4386   -3.7704 C.ar      1 <0>        -0.2562
     19 C12         2.8924  -10.5847   -4.1182 C.ar      1 <0>         0.0244
     20 C13         2.7778  -11.7250   -3.3419 C.ar      1 <0>        -0.2122
     21 C14         1.9739  -11.7211   -2.2172 C.ar      1 <0>        -0.0707
     22 C15         1.2868  -10.5769   -1.8612 C.ar      1 <0>        -0.1469
     23 C16         0.4162  -10.5721   -0.6311 C.3       1 <0>        -0.0801
     24 Cl1         3.9025  -10.5944   -5.5300 Cl        1 <0>        -0.1071
     25 C17        -0.5182   -2.8025   -0.0080 C.3       1 <0>         0.1727
     26 H1          1.0039    1.9031    0.0027 H         1 <0>         0.0616
     27 H2         -0.5459    1.8868   -0.8726 H         1 <0>         0.0607
     28 H3         -0.5289    1.8773    0.9072 H         1 <0>         0.0608
     29 H4          0.5123   -0.3556   -0.8948 H         1 <0>         0.0957
     30 H5          0.5293   -0.3651    0.8851 H         1 <0>         0.0951
     31 H6         -3.1465   -3.0595    0.8494 H         1 <0>         0.0785
     32 H7         -3.7206   -1.5475    0.0993 H         1 <0>         0.1041
     33 H8         -4.1295   -3.7616   -1.2154 H         1 <0>         0.0969
     34 H9         -3.4094   -2.4001   -2.1133 H         1 <0>         0.0905
     35 H10         1.1558   -4.7259   -1.1393 H         1 <0>         0.1432
     36 H11         2.2922   -8.5490   -4.3763 H         1 <0>         0.1076
     37 H12         3.3171  -12.6198   -3.6157 H         1 <0>         0.1134
     38 H13         1.8866  -12.6124   -1.6136 H         1 <0>         0.1152
     39 H14        -0.5941  -10.8805   -0.8998 H         1 <0>         0.0498
     40 H15         0.8238  -11.2649    0.1052 H         1 <0>         0.0402
     41 H16         0.3893   -9.5676   -0.2089 H         1 <0>         0.0734
     42 H17         0.4053   -2.2779   -0.2532 H         1 <0>         0.0991
     43 H18        -0.4246   -3.2798    0.9674 H         1 <0>         0.0871
@<TRIPOS>BOND
     1    1    2 1
     2    1   26 1
     3    1   27 1
     4    1   28 1
     5    2    3 1
     6    2   29 1
     7    2   30 1
     8    3    4 2
     9    3    5 am
    10    5   25 1
    11    5    6 1
    12    6    7 1
    13    6   31 1
    14    6   32 1
    15    7    8 1
    16    7   33 1
    17    7   34 1
    18    8   12 1
    19    8    9 2
    20    9   10 1
    21    9   25 1
    22   10   11 2
    23   10   35 1
    24   11   12 1
    25   11   13 1
    26   13   14 2
    27   13   15 2
    28   13   16 1
    29   16   17 1
    30   17   22 ar
    31   17   18 ar
    32   18   19 ar
    33   18   36 1
    34   19   20 ar
    35   19   24 1
    36   20   21 ar
    37   20   37 1
    38   21   22 ar
    39   21   38 1
    40   22   23 1
    41   23   39 1
    42   23   40 1
    43   23   41 1
    44   25   42 1
    45   25   43 1
@<TRIPOS>MOLECULE
ZINC26540131
   35    37     0     0     0
SMALL
USER_CHARGES
2,3,4-trifluoro-N-[4-(2-methyloxazol-5-yl)phenyl]benzenesulfonamide
@<TRIPOS>ATOM
      1 C1          4.1444   -2.5541   -0.2758 C.3       1 <0>        -0.0545
      2 C2          3.6194   -1.1445   -0.1841 C.2       1 <0>         0.1585
      3 N1          4.3504   -0.0695   -0.0900 N.2       1 <0>        -0.4782
      4 C3          3.5437    1.0012   -0.0346 C.2       1 <0>        -0.0630
      5 C4          2.2636    0.5516   -0.0886 C.2       1 <0>         0.0465
      6 O1          2.3254   -0.7945   -0.1858 O.3       1 <0>        -0.2014
      7 C5          1.0378    1.3770   -0.0540 C.ar      1 <0>        -0.1091
      8 C6         -0.2171    0.7691   -0.1245 C.ar      1 <0>        -0.0633
      9 C7         -1.3579    1.5419   -0.0982 C.ar      1 <0>        -0.2165
     10 C8         -1.2603    2.9246    0.0103 C.ar      1 <0>         0.2449
     11 C9         -0.0122    3.5330    0.0802 C.ar      1 <0>        -0.1585
     12 C10         1.1326    2.7662    0.0487 C.ar      1 <0>        -0.0655
     13 N2         -2.4181    3.7042    0.0430 N.2       1 <0>        -1.0506
     14 S1         -3.6370    3.4223   -1.0420 S.o2      1 <0>         2.5843
     15 O2         -3.9466    2.0382   -0.9544 O.2       1 <0>        -1.0257
     16 O3         -4.6107    4.4355   -0.8312 O.2       1 <0>        -0.9790
     17 C11        -2.9732    3.6889   -2.6522 C.ar      1 <0>        -0.6824
     18 C12        -2.8848    2.6377   -3.5458 C.ar      1 <0>         0.0147
     19 C13        -2.3654    2.8445   -4.8097 C.ar      1 <0>        -0.1619
     20 C14        -1.9324    4.1053   -5.1834 C.ar      1 <0>         0.1276
     21 C15        -2.0197    5.1602   -4.2891 C.ar      1 <0>         0.0042
     22 C16        -2.5459    4.9519   -3.0237 C.ar      1 <0>         0.1979
     23 F1         -2.6376    5.9800   -2.1520 F         1 <0>        -0.0958
     24 F2         -1.5977    6.3913   -4.6519 F         1 <0>        -0.1202
     25 F3         -1.4247    4.3069   -6.4191 F         1 <0>        -0.1207
     26 H1          5.2440   -2.5381   -0.2515 H         1 <0>         0.0992
     27 H2          3.8050   -3.0112   -1.2170 H         1 <0>         0.0859
     28 H3          3.7674   -3.1418    0.5742 H         1 <0>         0.0860
     29 H4          3.8556    2.0324    0.0412 H         1 <0>         0.1812
     30 H5         -0.2936   -0.3052   -0.2039 H         1 <0>         0.1121
     31 H6         -2.3288    1.0726   -0.1576 H         1 <0>         0.1469
     32 H7          0.0604    4.6076    0.1596 H         1 <0>         0.1227
     33 H8          2.1019    3.2393    0.1030 H         1 <0>         0.1150
     34 H9         -3.2225    1.6537   -3.2558 H         1 <0>         0.1639
     35 H10        -2.2975    2.0221   -5.5064 H         1 <0>         0.1550
@<TRIPOS>BOND
     1    1    2 1
     2    1   26 1
     3    1   27 1
     4    1   28 1
     5    2    6 1
     6    2    3 2
     7    3    4 1
     8    4    5 2
     9    4   29 1
    10    5    6 1
    11    5    7 1
    12    7   12 ar
    13    7    8 ar
    14    8    9 ar
    15    8   30 1
    16    9   10 ar
    17    9   31 1
    18   10   11 ar
    19   10   13 1
    20   11   12 ar
    21   11   32 1
    22   12   33 1
    23   13   14 1
    24   14   15 2
    25   14   16 2
    26   14   17 1
    27   17   22 ar
    28   17   18 ar
    29   18   19 ar
    30   18   34 1
    31   19   20 ar
    32   19   35 1
    33   20   21 ar
    34   20   25 1
    35   21   22 ar
    36   21   24 1
    37   22   23 1
@<TRIPOS>MOLECULE
ZINC02659514
   31    34     0     0     0
SMALL
USER_CHARGES

@<TRIPOS>ATOM
      1 C1         -0.0163    1.3509    0.0095 C.2       1 <0>        -0.0348
      2 C2          1.1836    2.0381    0.0017 C.2       1 <0>        -0.1613
      3 C3          2.3434    1.3347   -0.0131 C.2       1 <0>        -0.1144
      4 S1          1.7533   -0.3502   -0.0166 S.3       1 <0>         0.2030
      5 C4          0.0021   -0.0041    0.0020 C.2       1 <0>        -0.6750
      6 S2         -1.3516   -1.1319    0.0089 S.o2      1 <0>         2.6568
      7 O1         -0.8614   -2.3516    0.5485 O.2       1 <0>        -1.0003
      8 O2         -2.4555   -0.4381    0.5740 O.2       1 <0>        -0.9985
      9 N1         -1.7429   -1.4368   -1.5711 N.2       1 <0>        -1.0419
     10 C5         -2.7822   -2.2986   -1.8723 C.ar      1 <0>         0.5172
     11 C6         -3.1236   -2.5727   -3.2252 C.ar      1 <0>        -0.2204
     12 C7         -2.5010   -2.0461   -4.4509 C.2       1 <0>        -0.0356
     13 C8         -3.0141   -2.4632   -5.6194 C.2       1 <0>        -0.2353
     14 S3         -4.3353   -3.5684   -5.1769 S.3       1 <0>         0.0833
     15 C9         -4.1955   -3.4635   -3.4135 C.ar      1 <0>         0.1467
     16 N2         -4.8330   -4.0012   -2.3908 N.ar      1 <0>        -0.5599
     17 C10        -4.4718   -3.7098   -1.1561 C.ar      1 <0>         0.3592
     18 N3         -3.4706   -2.8850   -0.9057 N.ar      1 <0>        -0.6419
     19 C11        -2.3043   -1.8575   -6.8007 C.3       1 <0>        -0.0209
     20 C12        -1.5352   -0.6531   -6.2148 C.3       1 <0>        -0.1199
     21 C13        -1.3445   -1.0873   -4.7483 C.3       1 <0>        -0.0581
     22 Cl1         3.9774    1.9208   -0.0256 Cl        1 <0>         0.0144
     23 H1         -0.9542    1.8861    0.0257 H         1 <0>         0.1527
     24 H2          1.1971    3.1180    0.0070 H         1 <0>         0.1461
     25 H3         -5.0046   -4.1586   -0.3308 H         1 <0>         0.1891
     26 H4         -1.6105   -2.5761   -7.2370 H         1 <0>         0.0750
     27 H5         -3.0250   -1.5222   -7.5465 H         1 <0>         0.0691
     28 H6         -0.5738   -0.5247   -6.7120 H         1 <0>         0.0755
     29 H7         -2.1302    0.2580   -6.2778 H         1 <0>         0.0708
     30 H8         -1.3942   -0.2207   -4.0890 H         1 <0>         0.0830
     31 H9         -0.3898   -1.5993   -4.6279 H         1 <0>         0.0763
@<TRIPOS>BOND
     1    1    5 2
     2    1    2 1
     3    1   23 1
     4    2    3 2
     5    2   24 1
     6    3    4 1
     7    3   22 1
     8    4    5 1
     9    5    6 1
    10    6    7 2
    11    6    8 2
    12    6    9 1
    13    9   10 1
    14   10   18 ar
    15   10   11 ar
    16   11   15 ar
    17   11   12 1
    18   12   21 1
    19   12   13 2
    20   13   14 1
    21   13   19 1
    22   14   15 1
    23   15   16 ar
    24   16   17 ar
    25   17   18 ar
    26   17   25 1
    27   19   20 1
    28   19   26 1
    29   19   27 1
    30   20   21 1
    31   20   28 1
    32   20   29 1
    33   21   30 1
    34   21   31 1
@<TRIPOS>MOLECULE
ZINC48442110
   31    32     0     0     0
SMALL
USER_CHARGES

@<TRIPOS>ATOM
      1 C1         -0.0173    1.4248    0.0099 C.3       1 <0>         0.0267
      2 O1          0.0021   -0.0041    0.0020 O.3       1 <0>        -0.2899
      3 C2          0.6063   -0.6077   -1.0567 C.ar      1 <0>         0.0823
      4 C3          1.1727    0.1585   -2.0619 C.ar      1 <0>        -0.1689
      5 C4          1.7863   -0.4560   -3.1380 C.ar      1 <0>        -0.1573
      6 C5          1.8367   -1.8363   -3.2144 C.ar      1 <0>        -0.0534
      7 C6          1.2739   -2.6082   -2.2143 C.ar      1 <0>        -0.2180
      8 C7          0.6619   -1.9978   -1.1293 C.ar      1 <0>         0.2673
      9 N1          0.0966   -2.7766   -0.1130 N.2       1 <0>        -1.0663
     10 S1          0.1638   -4.4288   -0.2014 S.o2      1 <0>         2.5927
     11 O2         -0.6344   -4.8088   -1.3139 O.2       1 <0>        -1.0224
     12 O3          1.5347   -4.7861   -0.0900 O.2       1 <0>        -1.0223
     13 C8         -0.6394   -5.0605    1.2340 C.ar      1 <0>        -0.5858
     14 C9          0.0907   -5.2910    2.3864 C.ar      1 <0>        -0.0247
     15 C10        -0.5318   -5.7854    3.5138 C.ar      1 <0>        -0.0947
     16 C11        -1.9021   -6.0529    3.4902 C.ar      1 <0>         0.0004
     17 C12        -2.6329   -5.8175    2.3239 C.ar      1 <0>        -0.0948
     18 C13        -1.9985   -5.3183    1.2052 C.ar      1 <0>        -0.0247
     19 C14        -2.5548   -6.5667    4.6566 C.1       1 <0>         0.2605
     20 N2         -3.0726   -6.9742    5.5820 N.1       1 <0>        -0.4202
     21 Br1         2.6765   -2.6696   -4.6896 Br        1 <0>        -0.0885
     22 H1          1.0053    1.8021    0.0021 H         1 <0>         0.0442
     23 H2         -0.5445    1.7859   -0.8732 H         1 <0>         0.0443
     24 H3         -0.5275    1.7763    0.9067 H         1 <0>         0.0876
     25 H4          1.1347    1.2364   -2.0054 H         1 <0>         0.1219
     26 H5          2.2270    0.1432   -3.9210 H         1 <0>         0.1164
     27 H6          1.3144   -3.6857   -2.2760 H         1 <0>         0.1153
     28 H7          1.1505   -5.0837    2.4033 H         1 <0>         0.1487
     29 H8          0.0394   -5.9656    4.4125 H         1 <0>         0.1375
     30 H9         -3.6930   -6.0222    2.2989 H         1 <0>         0.1375
     31 H10        -2.5633   -5.1319    0.3038 H         1 <0>         0.1487
@<TRIPOS>BOND
     1    1    2 1
     2    1   22 1
     3    1   23 1
     4    1   24 1
     5    2    3 1
     6    3    8 ar
     7    3    4 ar
     8    4    5 ar
     9    4   25 1
    10    5    6 ar
    11    5   26 1
    12    6    7 ar
    13    6   21 1
    14    7    8 ar
    15    7   27 1
    16    8    9 1
    17    9   10 1
    18   10   11 2
    19   10   12 2
    20   10   13 1
    21   13   18 ar
    22   13   14 ar
    23   14   15 ar
    24   14   28 1
    25   15   16 ar
    26   15   29 1
    27   16   17 ar
    28   16   19 1
    29   17   18 ar
    30   17   30 1
    31   18   31 1
    32   19   20 3
@<TRIPOS>MOLECULE
ZINC62090242
   33    35     0     0     0
SMALL
USER_CHARGES

@<TRIPOS>ATOM
      1 C1         -0.0178    1.4608    0.0101 C.3       1 <0>         0.1104
      2 N1          0.0021   -0.0041    0.0020 N.pl3     1 <0>        -0.6488
      3 C2          0.0065   -0.7589   -1.2628 C.3       1 <0>         0.0958
      4 C3         -0.9567   -1.9432   -1.0993 C.3       1 <0>         0.0496
      5 O1         -0.5240   -2.7396    0.0061 O.3       1 <0>        -0.3221
      6 C4         -0.2511   -2.1030    1.1773 C.ar      1 <0>        -0.0434
      7 C5          0.0234   -0.7365    1.1995 C.ar      1 <0>         0.1783
      8 C6          0.3103   -0.1001    2.3958 C.ar      1 <0>        -0.2130
      9 C7          0.3275   -0.8280    3.5786 C.ar      1 <0>         0.2907
     10 C8          0.0568   -2.1894    3.5575 C.ar      1 <0>        -0.2730
     11 C9         -0.2397   -2.8237    2.3612 C.ar      1 <0>        -0.0513
     12 N2          0.6174   -0.1900    4.7897 N.2       1 <0>        -1.0846
     13 S1          0.6375   -1.0589    6.1993 S.o2      1 <0>         2.6252
     14 O2         -0.6967   -1.4903    6.4295 O.2       1 <0>        -1.0169
     15 O3          1.7256   -1.9675    6.1008 O.2       1 <0>        -1.0184
     16 C10         1.0349    0.0638    7.4978 C.2       1 <0>        -0.6505
     17 C11         0.2030    0.8051    8.2692 C.2       1 <0>        -0.0499
     18 C12         0.7437    1.6276    9.2401 C.2       1 <0>        -0.1308
     19 C13         2.0909    1.6679    9.3914 C.2       1 <0>        -0.1774
     20 S2          2.6372    0.5139    8.1436 S.3       1 <0>         0.2082
     21 Br1         3.1225    2.6785   10.6122 Br        1 <0>         0.0338
     22 H1          1.0048    1.8381    0.0023 H         1 <0>         0.0397
     23 H2         -0.5450    1.8219   -0.8730 H         1 <0>         0.0547
     24 H3         -0.5280    1.8123    0.9069 H         1 <0>         0.0685
     25 H4         -0.3304   -0.1177   -2.0773 H         1 <0>         0.0799
     26 H5          1.0116   -1.1255   -1.4712 H         1 <0>         0.0616
     27 H6         -1.9638   -1.5717   -0.9099 H         1 <0>         0.0544
     28 H7         -0.9523   -2.5458   -2.0076 H         1 <0>         0.1003
     29 H8          0.5206    0.9591    2.4087 H         1 <0>         0.1173
     30 H9          0.0691   -2.7551    4.4774 H         1 <0>         0.1017
     31 H10        -0.4497   -3.8830    2.3491 H         1 <0>         0.1135
     32 H11        -0.8665    0.7544    8.1274 H         1 <0>         0.1524
     33 H12         0.1032    2.2291    9.8681 H         1 <0>         0.1443
@<TRIPOS>BOND
     1    1    2 1
     2    1   22 1
     3    1   23 1
     4    1   24 1
     5    2    7 1
     6    2    3 1
     7    3    4 1
     8    3   25 1
     9    3   26 1
    10    4    5 1
    11    4   27 1
    12    4   28 1
    13    5    6 1
    14    6   11 ar
    15    6    7 ar
    16    7    8 ar
    17    8    9 ar
    18    8   29 1
    19    9   10 ar
    20    9   12 1
    21   10   11 ar
    22   10   30 1
    23   11   31 1
    24   12   13 1
    25   13   14 2
    26   13   15 2
    27   13   16 1
    28   16   20 1
    29   16   17 2
    30   17   18 1
    31   17   32 1
    32   18   19 2
    33   18   33 1
    34   19   20 1
    35   19   21 1
@<TRIPOS>MOLECULE
ZINC66250415
   40    43     0     0     0
SMALL
USER_CHARGES

@<TRIPOS>ATOM
      1 C1         -0.0909    1.2594   -0.1309 C.ar      1 <0>        -0.1436
      2 C2          0.3796    0.7578    1.0687 C.ar      1 <0>        -0.1093
      3 C3          1.6135    0.1398    1.1240 C.ar      1 <0>        -0.1057
      4 C4          2.3818    0.0225   -0.0266 C.ar      1 <0>         0.2036
      5 C5          1.9067    0.5272   -1.2296 C.ar      1 <0>        -0.1283
      6 C6          0.6719    1.1442   -1.2785 C.ar      1 <0>        -0.1123
      7 N1          3.6346   -0.6037    0.0264 N.pl3     1 <0>        -0.3531
      8 C7          3.9375   -1.7327    0.7220 C.2       1 <0>         0.4611
      9 C8          5.2557   -2.0045    0.5063 C.2       1 <0>        -0.4226
     10 C9          5.7650   -1.0163   -0.3409 C.2       1 <0>         0.0870
     11 N2          4.7959   -0.1823   -0.6321 N.2       1 <0>        -0.3297
     12 C10         7.2312   -1.2841   -0.6050 C.3       1 <0>        -0.0233
     13 C11         7.6695   -2.2664    0.5017 C.3       1 <0>        -0.1134
     14 C12         6.3514   -2.9872    0.8558 C.3       1 <0>        -0.0304
     15 N3          3.0622   -2.4742    1.5100 N.2       1 <0>        -1.0895
     16 S1          3.6222   -3.7712    2.3741 S.o2      1 <0>         2.6342
     17 O1          4.0497   -4.7379    1.4243 O.2       1 <0>        -1.0116
     18 O2          4.4878   -3.2502    3.3733 O.2       1 <0>        -1.0126
     19 C13         2.2422   -4.4701    3.2178 C.ar      1 <0>        -0.6055
     20 C14         1.9086   -4.0245    4.4834 C.ar      1 <0>        -0.0041
     21 C15         0.8266   -4.5712    5.1472 C.ar      1 <0>        -0.1502
     22 C16         0.0754   -5.5655    4.5448 C.ar      1 <0>         0.1042
     23 C17         0.4096   -6.0120    3.2754 C.ar      1 <0>         0.0425
     24 C18         1.4909   -5.4591    2.6114 C.ar      1 <0>        -0.0261
     25 F1         -0.3219   -6.9827    2.6856 F         1 <0>        -0.1285
     26 F2         -0.9822   -6.1007    5.1932 F         1 <0>        -0.1271
     27 H1         -1.0580    1.7383   -0.1726 H         1 <0>         0.1164
     28 H2         -0.2183    0.8496    1.9634 H         1 <0>         0.1210
     29 H3          1.9806   -0.2516    2.0613 H         1 <0>         0.1370
     30 H4          2.5022    0.4378   -2.1262 H         1 <0>         0.1238
     31 H5          0.3018    1.5369   -2.2140 H         1 <0>         0.1197
     32 H6          7.3616   -1.7385   -1.5871 H         1 <0>         0.0788
     33 H7          7.8028   -0.3585   -0.5369 H         1 <0>         0.0700
     34 H8          8.4066   -2.9736    0.1212 H         1 <0>         0.0709
     35 H9          8.0593   -1.7272    1.3651 H         1 <0>         0.0673
     36 H10         6.3232   -3.2224    1.9198 H         1 <0>         0.0578
     37 H11         6.2467   -3.8965    0.2639 H         1 <0>         0.0633
     38 H12         2.4944   -3.2488    4.9539 H         1 <0>         0.1557
     39 H13         0.5675   -4.2228    6.1361 H         1 <0>         0.1518
     40 H14         1.7500   -5.8034    1.6210 H         1 <0>         0.1604
@<TRIPOS>BOND
     1    1    6 ar
     2    1    2 ar
     3    1   27 1
     4    2    3 ar
     5    2   28 1
     6    3    4 ar
     7    3   29 1
     8    4    5 ar
     9    4    7 1
    10    5    6 ar
    11    5   30 1
    12    6   31 1
    13    7   11 1
    14    7    8 1
    15    8    9 2
    16    8   15 1
    17    9   14 1
    18    9   10 1
    19   10   11 2
    20   10   12 1
    21   12   13 1
    22   12   32 1
    23   12   33 1
    24   13   14 1
    25   13   34 1
    26   13   35 1
    27   14   36 1
    28   14   37 1
    29   15   16 1
    30   16   17 2
    31   16   18 2
    32   16   19 1
    33   19   24 ar
    34   19   20 ar
    35   20   21 ar
    36   20   38 1
    37   21   22 ar
    38   21   39 1
    39   22   23 ar
    40   22   26 1
    41   23   24 ar
    42   23   25 1
    43   24   40 1
@<TRIPOS>MOLECULE
ZINC20015069
   41    44     0     0     0
SMALL
USER_CHARGES

@<TRIPOS>ATOM
      1 C1         -0.0307    1.5076   -0.0854 C.3       1 <0>        -0.0701
      2 C2         -0.0083    0.0008   -0.0867 C.2       1 <0>        -0.1438
      3 C3         -1.0482   -0.8640   -0.0682 C.2       1 <0>        -0.1440
      4 C4         -0.7894   -2.2309   -0.0742 C.2       1 <0>        -0.0729
      5 C5          0.5111   -2.6485   -0.0987 C.2       1 <0>        -0.0984
      6 S1          1.3969   -1.0990   -0.1210 S.3       1 <0>         0.0362
      7 C6          1.0563   -4.0533   -0.1100 C.3       1 <0>        -0.0726
      8 C7         -1.9018   -3.2140   -0.0539 C.2       1 <0>         0.1506
      9 C8         -3.2101   -2.8179   -0.0346 C.2       1 <0>        -0.2684
     10 S2         -4.0370   -4.4000   -0.0170 S.3       1 <0>         0.2338
     11 C9         -2.6704   -5.3814   -0.0355 C.2       1 <0>         0.2419
     12 N1         -1.6769   -4.5212   -0.0592 N.2       1 <0>        -0.5387
     13 N2         -2.6074   -6.7677   -0.0325 N.am      1 <0>        -0.6030
     14 C10        -3.7427   -7.4938   -0.0130 C.2       1 <0>         0.5657
     15 O1         -4.8175   -6.9381    0.0986 O.2       1 <0>        -0.4776
     16 C11        -3.6802   -8.9703   -0.1279 C.2       1 <0>        -0.0295
     17 C12        -2.4786   -9.6201   -0.1323 C.2       1 <0>        -0.1466
     18 C13        -2.4496  -11.0760   -0.2463 C.2       1 <0>         0.5359
     19 N3         -3.5871  -11.7855   -0.3468 N.am      1 <0>        -0.6244
     20 C14        -4.8196  -11.1679   -0.3466 C.ar      1 <0>         0.1866
     21 C15        -4.9109   -9.7692   -0.2334 C.ar      1 <0>        -0.1107
     22 C16        -6.1649   -9.1518   -0.2281 C.ar      1 <0>        -0.0585
     23 C17        -7.2966   -9.9109   -0.3271 C.ar      1 <0>        -0.1480
     24 C18        -7.2120  -11.2923   -0.4326 C.ar      1 <0>        -0.0567
     25 C19        -5.9860  -11.9210   -0.4526 C.ar      1 <0>        -0.1658
     26 O2         -1.3784  -11.6562   -0.2508 O.2       1 <0>        -0.5174
     27 H1          0.9912    1.8862   -0.1093 H         1 <0>         0.0730
     28 H2         -0.5707    1.8637   -0.9627 H         1 <0>         0.0810
     29 H3         -0.5287    1.8628    0.8167 H         1 <0>         0.0811
     30 H4         -2.0644   -0.4988   -0.0487 H         1 <0>         0.1352
     31 H5          1.1688   -4.3911   -1.1403 H         1 <0>         0.0762
     32 H6          2.0268   -4.0704    0.3859 H         1 <0>         0.0654
     33 H7          0.3678   -4.7146    0.4161 H         1 <0>         0.1046
     34 H8         -3.6283   -1.8222   -0.0304 H         1 <0>         0.1966
     35 H9         -1.7463   -7.2141   -0.0443 H         1 <0>         0.4261
     36 H10        -1.5575   -9.0618   -0.0526 H         1 <0>         0.1615
     37 H11        -6.2391   -8.0775   -0.1455 H         1 <0>         0.1679
     38 H12        -8.2647   -9.4323   -0.3228 H         1 <0>         0.1338
     39 H13        -8.1153  -11.8791   -0.5098 H         1 <0>         0.1352
     40 H14        -5.9303  -12.9964   -0.5358 H         1 <0>         0.1378
     41 H15        -3.5397  -12.7514   -0.4214 H         1 <0>         0.4211
@<TRIPOS>BOND
     1    1    2 1
     2    1   27 1
     3    1   28 1
     4    1   29 1
     5    2    6 1
     6    2    3 2
     7    3    4 1
     8    3   30 1
     9    4    5 2
    10    4    8 1
    11    5    6 1
    12    5    7 1
    13    7   31 1
    14    7   32 1
    15    7   33 1
    16    8   12 1
    17    8    9 2
    18    9   10 1
    19    9   34 1
    20   10   11 1
    21   11   12 2
    22   11   13 1
    23   13   14 am
    24   13   35 1
    25   14   15 2
    26   14   16 1
    27   16   21 1
    28   16   17 2
    29   17   18 1
    30   17   36 1
    31   18   19 am
    32   18   26 2
    33   19   20 1
    34   19   41 1
    35   20   25 ar
    36   20   21 ar
    37   21   22 ar
    38   22   23 ar
    39   22   37 1
    40   23   24 ar
    41   23   38 1
    42   24   25 ar
    43   24   39 1
    44   25   40 1
@<TRIPOS>MOLECULE
ZINC37744597
   26    27     0     0     0
SMALL
USER_CHARGES

@<TRIPOS>ATOM
      1 C1          0.2105    1.4785   -0.5283 C.3       1 <0>        -0.0930
      2 C2          0.1701   -0.0219   -0.3935 C.ar      1 <0>        -0.1621
      3 C3          0.1588   -0.8160   -1.5255 C.ar      1 <0>        -0.0589
      4 C4          0.1214   -2.1923   -1.4057 C.ar      1 <0>        -0.1241
      5 C5          0.0955   -2.7779   -0.1459 C.ar      1 <0>         0.3100
      6 C6          0.1075   -1.9767    0.9893 C.ar      1 <0>        -0.1776
      7 C7          0.1502   -0.6013    0.8619 C.ar      1 <0>        -0.0563
      8 Br1         0.0718   -2.7677    2.7066 Br        1 <0>        -0.0294
      9 N1          0.0572   -4.1695   -0.0209 N.2       1 <0>        -1.1236
     10 S1          1.3706   -4.9839    0.5740 S.o2      1 <0>         2.6420
     11 O1          2.4823   -4.5990   -0.2230 O.2       1 <0>        -1.0343
     12 O2          1.3493   -4.8138    1.9846 O.2       1 <0>        -1.0069
     13 C8          1.1023   -6.6986    0.2694 C.2       1 <0>        -0.7502
     14 C9          0.4785   -7.5665    1.0993 C.2       1 <0>         0.1647
     15 N2          0.4779   -8.7772    0.5033 N.pl3     1 <0>        -0.4792
     16 H1          0.0979   -9.5921    0.8671 H         1 <0>         0.4350
     17 N3          1.1226   -8.6491   -0.7337 N.2       1 <0>        -0.3108
     18 C10         1.4910   -7.4017   -0.8755 C.2       1 <0>         0.1335
     19 Br2         0.1047   -3.2772   -2.9545 Br        1 <0>        -0.0644
     20 H2          1.2475    1.8130   -0.5571 H         1 <0>         0.0580
     21 H3         -0.2924    1.7743   -1.4491 H         1 <0>         0.0573
     22 H4         -0.2945    1.9336    0.3238 H         1 <0>         0.0570
     23 H5          0.1789   -0.3601   -2.5043 H         1 <0>         0.1179
     24 H6          0.1640    0.0219    1.7438 H         1 <0>         0.1165
     25 H7          0.0567   -7.3322    2.0656 H         1 <0>         0.1881
     26 H8          2.0087   -6.9872   -1.7279 H         1 <0>         0.1908
@<TRIPOS>BOND
     1    1    2 1
     2    1   20 1
     3    1   21 1
     4    1   22 1
     5    2    7 ar
     6    2    3 ar
     7    3    4 ar
     8    3   23 1
     9    4    5 ar
    10    4   19 1
    11    5    6 ar
    12    5    9 1
    13    6    7 ar
    14    6    8 1
    15    7   24 1
    16    9   10 1
    17   10   11 2
    18   10   12 2
    19   10   13 1
    20   13   18 1
    21   13   14 2
    22   14   15 1
    23   14   25 1
    24   15   16 1
    25   15   17 1
    26   17   18 2
    27   18   26 1
@<TRIPOS>MOLECULE
ZINC40099898
   43    45     0     0     0
SMALL
USER_CHARGES

@<TRIPOS>ATOM
      1 C1          4.3293   -0.7499   -1.4619 C.3       1 <0>        -0.1125
      2 C2          3.2045   -1.6797   -1.0862 C.ar      1 <0>        -0.1086
      3 C3          2.1267   -1.8374   -1.9397 C.ar      1 <0>        -0.1094
      4 C4          1.0937   -2.6866   -1.6024 C.ar      1 <0>        -0.0803
      5 C5          1.1358   -3.3893   -0.3960 C.ar      1 <0>        -0.1147
      6 C6          2.2251   -3.2272    0.4619 C.ar      1 <0>        -0.0953
      7 C7          3.2565   -2.3776    0.1099 C.ar      1 <0>         0.0789
      8 F1          4.3146   -2.2229    0.9357 F         1 <0>        -0.1408
      9 C8          0.0310   -4.3009   -0.0289 C.2       1 <0>         0.5062
     10 O1         -0.9497   -4.3869   -0.7438 O.2       1 <0>        -0.4667
     11 C9          0.1172   -5.1008    1.1964 C.2       1 <0>        -0.5055
     12 C10         0.2228   -6.4481    1.2752 C.2       1 <0>         0.2654
     13 C11         0.2821   -6.8479    2.6972 C.2       1 <0>         0.5112
     14 O2          0.3787   -7.9913    3.0966 O.2       1 <0>        -0.5369
     15 N1          0.2136   -5.7585    3.4837 N.am      1 <0>        -0.6051
     16 C12         0.1119   -4.5802    2.6147 C.3       1 <0>         0.2668
     17 H1          0.9638   -3.9192    2.7745 H         1 <0>         0.0820
     18 C13        -1.1742   -3.8453    2.8921 C.ar      1 <0>        -0.0591
     19 C14        -2.3102   -4.5495    3.2457 C.ar      1 <0>        -0.0831
     20 C15        -3.4901   -3.8760    3.5002 C.ar      1 <0>        -0.1144
     21 C16        -3.5347   -2.4979    3.4014 C.ar      1 <0>        -0.1026
     22 C17        -2.3984   -1.7930    3.0482 C.ar      1 <0>        -0.0865
     23 C18        -1.2164   -2.4671    2.7986 C.ar      1 <0>        -0.0840
     24 Br1        -2.4590    0.0921    2.9121 Br        1 <0>        -0.0654
     25 C19         0.2422   -5.7496    4.9484 C.3       1 <0>         0.1351
     26 C20         1.6900   -5.6348    5.4296 C.3       1 <0>         0.0588
     27 O3          2.2248   -4.3703    5.0333 O.3       1 <0>        -0.5650
     28 O4          0.2664   -7.2940    0.2205 O.3       1 <0>        -0.6526
     29 H2          5.0828   -1.3002   -2.0254 H         1 <0>         0.0725
     30 H3          3.9394    0.0631   -2.0745 H         1 <0>         0.0703
     31 H4          4.7793   -0.3399   -0.5577 H         1 <0>         0.0684
     32 H5          2.0942   -1.2936   -2.8722 H         1 <0>         0.1318
     33 H6          0.2534   -2.8078   -2.2698 H         1 <0>         0.1363
     34 H7          2.2636   -3.7674    1.3963 H         1 <0>         0.1479
     35 H8         -2.2758   -5.6262    3.3227 H         1 <0>         0.1236
     36 H9         -4.3774   -4.4266    3.7760 H         1 <0>         0.1271
     37 H10        -4.4569   -1.9718    3.5996 H         1 <0>         0.1263
     38 H11        -0.3279   -1.9168    2.5264 H         1 <0>         0.1285
     39 H12        -0.3319   -4.8998    5.3178 H         1 <0>         0.0824
     40 H13        -0.1940   -6.6744    5.3260 H         1 <0>         0.0927
     41 H14         1.7194   -5.7173    6.5161 H         1 <0>         0.0514
     42 H15         2.2841   -6.4350    4.9882 H         1 <0>         0.0502
     43 H16         3.1418   -4.2283    5.3055 H         1 <0>         0.3747
@<TRIPOS>BOND
     1    1    2 1
     2    1   29 1
     3    1   30 1
     4    1   31 1
     5    2    7 ar
     6    2    3 ar
     7    3    4 ar
     8    3   32 1
     9    4    5 ar
    10    4   33 1
    11    5    6 ar
    12    5    9 1
    13    6    7 ar
    14    6   34 1
    15    7    8 1
    16    9   10 2
    17    9   11 1
    18   11   16 1
    19   11   12 2
    20   12   13 1
    21   12   28 1
    22   13   14 2
    23   13   15 am
    24   15   16 1
    25   15   25 1
    26   16   17 1
    27   16   18 1
    28   18   23 ar
    29   18   19 ar
    30   19   20 ar
    31   19   35 1
    32   20   21 ar
    33   20   36 1
    34   21   22 ar
    35   21   37 1
    36   22   23 ar
    37   22   24 1
    38   23   38 1
    39   25   26 1
    40   25   39 1
    41   25   40 1
    42   26   27 1
    43   26   41 1
    44   26   42 1
    45   27   43 1
@<TRIPOS>MOLECULE
ZINC48440954
   33    34     0     0     0
SMALL
USER_CHARGES

@<TRIPOS>ATOM
      1 C1         -0.0085    1.4924    0.0037 C.3       1 <0>        -0.1055
      2 C2          0.0159   -0.0144    0.0019 C.ar      1 <0>        -0.0677
      3 C3          0.0282   -0.7033   -1.1947 C.ar      1 <0>        -0.1660
      4 C4          0.0507   -2.0918   -1.1963 C.ar      1 <0>         0.2766
      5 C5          0.0608   -2.7874    0.0060 C.ar      1 <0>        -0.2528
      6 C6          0.0485   -2.0984    1.2021 C.ar      1 <0>        -0.0525
      7 C7          0.0317   -0.7097    1.2034 C.ar      1 <0>         0.0232
      8 N1          0.0251   -0.0102    2.4179 N.am      1 <0>        -0.6570
      9 C8         -0.6321   -0.5132    3.4817 C.2       1 <0>         0.4965
     10 O1         -1.1487   -1.6086    3.4130 O.2       1 <0>        -0.5359
     11 C9         -0.7252    0.2852    4.7564 C.3       1 <0>        -0.1670
     12 N2          0.0627   -2.7898   -2.4085 N.2       1 <0>        -1.0904
     13 S1          0.0895   -4.4456   -2.4103 S.o2      1 <0>         2.6209
     14 O2          1.3409   -4.8321   -1.8592 O.2       1 <0>        -1.0072
     15 O3         -1.1494   -4.8725   -1.8606 O.2       1 <0>        -1.0056
     16 C10         0.0988   -4.9647   -4.0940 C.2       1 <0>        -0.6446
     17 C11         0.1139   -6.2228   -4.5996 C.2       1 <0>        -0.0296
     18 C12         0.1183   -6.3936   -5.9717 C.2       1 <0>        -0.1631
     19 C13         0.1073   -5.2984   -6.7704 C.2       1 <0>        -0.1754
     20 S2          0.0830   -3.9709   -5.5770 S.3       1 <0>         0.2196
     21 Br1         0.1294   -7.7208   -3.4457 Br        1 <0>        -0.0314
     22 H1          1.0131    1.8723    0.0002 H         1 <0>         0.0619
     23 H2         -0.5316    1.8483   -0.8839 H         1 <0>         0.0642
     24 H3         -0.5248    1.8464    0.8960 H         1 <0>         0.0544
     25 H4          0.0199   -0.1622   -2.1294 H         1 <0>         0.1178
     26 H5          0.0779   -3.8673    0.0050 H         1 <0>         0.0994
     27 H6          0.0560   -2.6392    2.1369 H         1 <0>         0.1218
     28 H7          0.4934    0.8359    2.4929 H         1 <0>         0.3996
     29 H8         -0.2057    1.2349    4.6290 H         1 <0>         0.0725
     30 H9         -1.7728    0.4728    4.9919 H         1 <0>         0.0919
     31 H10        -0.2645   -0.2747    5.5702 H         1 <0>         0.0906
     32 H11         0.1306   -7.3847   -6.4006 H         1 <0>         0.1444
     33 H12         0.1086   -5.2433   -7.8490 H         1 <0>         0.1962
@<TRIPOS>BOND
     1    1    2 1
     2    1   22 1
     3    1   23 1
     4    1   24 1
     5    2    7 ar
     6    2    3 ar
     7    3    4 ar
     8    3   25 1
     9    4    5 ar
    10    4   12 1
    11    5    6 ar
    12    5   26 1
    13    6    7 ar
    14    6   27 1
    15    7    8 1
    16    8    9 am
    17    8   28 1
    18    9   10 2
    19    9   11 1
    20   11   29 1
    21   11   30 1
    22   11   31 1
    23   12   13 1
    24   13   14 2
    25   13   15 2
    26   13   16 1
    27   16   20 1
    28   16   17 2
    29   17   18 1
    30   17   21 1
    31   18   19 2
    32   18   32 1
    33   19   20 1
    34   19   33 1
@<TRIPOS>MOLECULE
ZINC63911558
   36    37     0     0     0
SMALL
USER_CHARGES

@<TRIPOS>ATOM
      1 C1         -0.0178    1.4608    0.0101 C.3       1 <0>         0.0903
      2 N1          0.0021   -0.0041    0.0020 N.am      1 <0>        -0.7385
      3 C2         -1.1558   -0.6938    0.0094 C.2       1 <0>         0.5631
      4 O1         -2.2166   -0.1004    0.0227 O.2       1 <0>        -0.5428
      5 C3         -1.1358   -2.1722    0.0012 C.ar      1 <0>        -0.1050
      6 C4          0.0814   -2.8561   -0.0083 C.ar      1 <0>        -0.1913
      7 C5          0.0976   -4.2358   -0.0159 C.ar      1 <0>        -0.0721
      8 C6         -1.0886   -4.9458   -0.0146 C.ar      1 <0>        -0.2412
      9 C7         -2.3056   -4.2746   -0.0052 C.ar      1 <0>         0.2697
     10 C8         -2.3325   -2.8881    0.0088 C.ar      1 <0>        -0.1107
     11 N2         -3.5017   -4.9966   -0.0043 N.2       1 <0>        -1.0844
     12 S1         -3.4694   -6.6523   -0.0146 S.o2      1 <0>         2.6014
     13 O2         -2.9162   -7.0399   -1.2648 O.2       1 <0>        -1.0208
     14 O3         -2.9053   -7.0552    1.2258 O.2       1 <0>        -1.0215
     15 C9         -5.1421   -7.2060   -0.0107 C.ar      1 <0>        -0.6294
     16 C10        -5.7945   -7.4249    1.1886 C.ar      1 <0>         0.0372
     17 C11        -7.1064   -7.8587    1.1929 C.ar      1 <0>        -0.1773
     18 C12        -7.7678   -8.0742   -0.0045 C.ar      1 <0>         0.1847
     19 C13        -7.1136   -7.8546   -1.2046 C.ar      1 <0>        -0.2492
     20 C14        -5.8030   -7.4157   -1.2065 C.ar      1 <0>         0.0519
     21 C15        -7.8319   -8.0891   -2.5085 C.3       1 <0>         0.5167
     22 F1         -6.9712   -7.8016   -3.5733 F         1 <0>        -0.1687
     23 F2         -8.2366   -9.4262   -2.5841 F         1 <0>        -0.1744
     24 F3         -8.9546   -7.2574   -2.5787 F         1 <0>        -0.1726
     25 F4         -9.0504   -8.4987   -0.0014 F         1 <0>        -0.1223
     26 H1          1.0048    1.8381    0.0023 H         1 <0>         0.0706
     27 H2         -0.5450    1.8219   -0.8730 H         1 <0>         0.0566
     28 H3         -0.5280    1.8123    0.9069 H         1 <0>         0.0566
     29 H4          0.8486   -0.4776   -0.0086 H         1 <0>         0.4017
     30 H5          1.0103   -2.3052   -0.0100 H         1 <0>         0.1063
     31 H6          1.0402   -4.7629   -0.0233 H         1 <0>         0.1101
     32 H7         -1.0696   -6.0256   -0.0213 H         1 <0>         0.1016
     33 H8         -3.2770   -2.3646    0.0207 H         1 <0>         0.1278
     34 H9         -5.2783   -7.2571    2.1223 H         1 <0>         0.1590
     35 H10        -7.6156   -8.0300    2.1298 H         1 <0>         0.1543
     36 H11        -5.2938   -7.2400   -2.1426 H         1 <0>         0.1626
@<TRIPOS>BOND
     1    1    2 1
     2    1   26 1
     3    1   27 1
     4    1   28 1
     5    2    3 am
     6    2   29 1
     7    3    4 2
     8    3    5 1
     9    5   10 ar
    10    5    6 ar
    11    6    7 ar
    12    6   30 1
    13    7    8 ar
    14    7   31 1
    15    8    9 ar
    16    8   32 1
    17    9   10 ar
    18    9   11 1
    19   10   33 1
    20   11   12 1
    21   12   13 2
    22   12   14 2
    23   12   15 1
    24   15   20 ar
    25   15   16 ar
    26   16   17 ar
    27   16   34 1
    28   17   18 ar
    29   17   35 1
    30   18   19 ar
    31   18   25 1
    32   19   20 ar
    33   19   21 1
    34   20   36 1
    35   21   22 1
    36   21   23 1
    37   21   24 1
@<TRIPOS>MOLECULE
ZINC13172748
   37    39     0     0     0
SMALL
USER_CHARGES
(3R)-3-[(3-chlorobenzothiophene-2-carbonyl)amino]-3-(2-chlorophenyl)propanoic acid
@<TRIPOS>ATOM
      1 C1         -0.9682    2.0884   -2.5612 C.ar      1 <0>        -0.1254
      2 C2         -1.4725    2.0141   -1.2683 C.ar      1 <0>        -0.0835
      3 C3         -1.0337    2.9102   -0.3151 C.ar      1 <0>        -0.0784
      4 C4         -0.1105    3.8737   -0.6623 C.ar      1 <0>        -0.1030
      5 C5          0.4155    3.9765   -1.9716 C.ar      1 <0>        -0.0977
      6 C6         -0.0585    3.0314   -2.9175 C.ar      1 <0>        -0.0582
      7 C7          1.3484    5.0123   -2.1674 C.2       1 <0>         0.0029
      8 C8          1.6830    5.8280   -1.1308 C.2       1 <0>        -0.1650
      9 S1          0.6974    5.1900    0.2129 S.3       1 <0>         0.1102
     10 C9          2.6237    6.9553   -1.1204 C.2       1 <0>         0.6025
     11 O1          3.2201    7.2593   -2.1364 O.2       1 <0>        -0.5033
     12 N1          2.8266    7.6532    0.0146 N.am      1 <0>        -0.6874
     13 C10         3.8438    8.7068    0.0547 C.3       1 <0>         0.2026
     14 H1          4.6782    8.4309   -0.5901 H         1 <0>         0.1123
     15 C11         4.3439    8.8784    1.4905 C.3       1 <0>        -0.1644
     16 C12         5.0659    7.6286    1.9238 C.2       1 <0>         0.4617
     17 O2          5.0992    6.6664    1.1938 O.co2     1 <0>        -0.6257
     18 C13         3.2440   10.0027   -0.4266 C.ar      1 <0>        -0.0720
     19 C14         1.8806   10.2105   -0.3328 C.ar      1 <0>        -0.0992
     20 C15         1.3308   11.4008   -0.7703 C.ar      1 <0>        -0.1157
     21 C16         2.1430   12.3806   -1.3108 C.ar      1 <0>        -0.1181
     22 C17         3.5054   12.1720   -1.4100 C.ar      1 <0>        -0.1098
     23 C18         4.0570   10.9824   -0.9678 C.ar      1 <0>        -0.0262
     24 Cl1         5.7684   10.7194   -1.0926 Cl        1 <0>        -0.0609
     25 Cl2         2.0711    5.2484   -3.7280 Cl        1 <0>        -0.0252
     26 H2         -1.3116    1.3814   -3.3020 H         1 <0>         0.1304
     27 H3         -2.1989    1.2576   -1.0103 H         1 <0>         0.1372
     28 H4         -1.4145    2.8605    0.6943 H         1 <0>         0.1370
     29 H5          0.3082    3.0625   -3.9328 H         1 <0>         0.1301
     30 H6          2.2991    7.4580    0.8049 H         1 <0>         0.3963
     31 H7          5.0260    9.7273    1.5386 H         1 <0>         0.0853
     32 H8          3.4958    9.0559    2.1518 H         1 <0>         0.0711
     33 H9          1.2452    9.4439    0.0856 H         1 <0>         0.1261
     34 H10         0.2660   11.5640   -0.6936 H         1 <0>         0.1250
     35 H11         1.7124   13.3090   -1.6559 H         1 <0>         0.1274
     36 H12         4.1396   12.9371   -1.8329 H         1 <0>         0.1310
     37 O3          5.6718    7.5844    3.1207 O.co2     1 <0>        -0.7701
@<TRIPOS>BOND
     1    1    6 ar
     2    1    2 ar
     3    1   26 1
     4    2    3 ar
     5    2   27 1
     6    3    4 ar
     7    3   28 1
     8    4    9 1
     9    4    5 ar
    10    5    6 ar
    11    5    7 1
    12    6   29 1
    13    7    8 2
    14    7   25 1
    15    8    9 1
    16    8   10 1
    17   10   11 2
    18   10   12 am
    19   12   13 1
    20   12   30 1
    21   13   14 1
    22   13   15 1
    23   13   18 1
    24   15   16 1
    25   15   31 1
    26   15   32 1
    27   16   17 2
    28   16   37 1
    29   18   23 ar
    30   18   19 ar
    31   19   20 ar
    32   19   33 1
    33   20   21 ar
    34   20   34 1
    35   21   22 ar
    36   21   35 1
    37   22   23 ar
    38   22   36 1
    39   23   24 1
@<TRIPOS>MOLECULE
ZINC33701382
   53    56     0     0     0
SMALL
USER_CHARGES
(4E,5R)-1-benzyl-4-[(2,5-dimethylphenyl)-hydroxy-methylene]-5-(3-hydroxyphenyl)pyrrolidine-2,3-dione
@<TRIPOS>ATOM
      1 C1          0.9345    5.4319   -7.2721 C.3       1 <0>        -0.1080
      2 C2          0.5566    6.2343   -6.0537 C.ar      1 <0>        -0.1039
      3 C3          0.5541    7.6175   -6.1115 C.ar      1 <0>        -0.1235
      4 C4          0.2086    8.3632   -4.9979 C.ar      1 <0>        -0.1238
      5 C5         -0.1418    7.7322   -3.8228 C.ar      1 <0>        -0.0466
      6 C6         -0.1356    6.3356   -3.7547 C.ar      1 <0>        -0.0543
      7 C7          0.2148    5.5891   -4.8844 C.ar      1 <0>        -0.0913
      8 C8         -0.5023    5.6537   -2.5010 C.2       1 <0>         0.4012
      9 C9          0.3034    5.7765   -1.3879 C.2       1 <0>        -0.4953
     10 C10         0.0145    5.2622    0.0034 C.3       1 <0>         0.2646
     11 H1         -0.9034    5.7005    0.4220 H         1 <0>         0.0684
     12 N1          1.1623    5.6344    0.8355 N.am      1 <0>        -0.5951
     13 C11         2.0559    6.2931    0.0788 C.2       1 <0>         0.4775
     14 O1          3.1150    6.7330    0.4772 O.2       1 <0>        -0.5319
     15 C12         1.5581    6.4041   -1.3193 C.2       1 <0>         0.3722
     16 O2          2.1379    6.9449   -2.2433 O.3       1 <0>        -0.4917
     17 C13         1.3112    5.3358    2.2620 C.3       1 <0>         0.1682
     18 C14         1.9957    4.0034    2.4275 C.ar      1 <0>        -0.1066
     19 C15         1.2446    2.8456    2.5058 C.ar      1 <0>        -0.0766
     20 C16         1.8727    1.6230    2.6532 C.ar      1 <0>        -0.1209
     21 C17         3.2513    1.5592    2.7321 C.ar      1 <0>        -0.1190
     22 C18         4.0021    2.7176    2.6586 C.ar      1 <0>        -0.1303
     23 C19         3.3743    3.9397    2.5068 C.ar      1 <0>        -0.0976
     24 C20        -0.1399    3.7634   -0.0222 C.ar      1 <0>        -0.0232
     25 C21         0.9791    2.9549   -0.1021 C.ar      1 <0>        -0.1267
     26 C22         0.8408    1.5796   -0.1258 C.ar      1 <0>        -0.0828
     27 C23        -0.4164    1.0094   -0.0692 C.ar      1 <0>        -0.1732
     28 C24        -1.5407    1.8183    0.0058 C.ar      1 <0>         0.1434
     29 C25        -1.3990    3.1983    0.0347 C.ar      1 <0>        -0.1733
     30 O3         -2.7788    1.2601    0.0559 O.3       1 <0>        -0.5185
     31 O4         -1.6266    4.9089   -2.4416 O.2       1 <0>        -0.6306
     32 C26        -0.5243    8.5459   -2.6134 C.3       1 <0>        -0.1186
     33 H2          1.1735    6.1144   -8.1010 H         1 <0>         0.0592
     34 H3          0.0928    4.7851   -7.5607 H         1 <0>         0.0632
     35 H4          1.8130    4.8105   -7.0439 H         1 <0>         0.0639
     36 H5          0.8236    8.1173   -7.0302 H         1 <0>         0.1121
     37 H6          0.2089    9.4419   -5.0507 H         1 <0>         0.1144
     38 H7          0.2179    4.5100   -4.8407 H         1 <0>         0.1148
     39 H8          1.9161    6.1206    2.7397 H         1 <0>         0.0876
     40 H9          0.3185    5.2993    2.7346 H         1 <0>         0.0845
     41 H10         0.1673    2.8958    2.4483 H         1 <0>         0.1169
     42 H11         1.2861    0.7180    2.7102 H         1 <0>         0.1165
     43 H12         3.7418    0.6044    2.8507 H         1 <0>         0.1146
     44 H13         5.0792    2.6677    2.7202 H         1 <0>         0.1156
     45 H14         3.9609    4.8447    2.4498 H         1 <0>         0.1214
     46 H15         1.9628    3.3986   -0.1458 H         1 <0>         0.1076
     47 H16         1.7163    0.9503   -0.1883 H         1 <0>         0.1139
     48 H17        -0.5239   -0.0651   -0.0877 H         1 <0>         0.1143
     49 H18        -2.2726    3.8302    0.0975 H         1 <0>         0.1212
     50 H19        -3.6697    1.9025    0.1154 H         1 <0>         0.4261
     51 H20        -0.7694    7.8711   -1.7800 H         1 <0>         0.0769
     52 H21        -1.4000    9.1674   -2.8517 H         1 <0>         0.0576
     53 H22         0.3174    9.1931   -2.3258 H         1 <0>         0.0656
@<TRIPOS>BOND
     1    1    2 1
     2    1   33 1
     3    1   34 1
     4    1   35 1
     5    2    7 ar
     6    2    3 ar
     7    3    4 ar
     8    3   36 1
     9    4    5 ar
    10    4   37 1
    11    5    6 ar
    12    5   32 1
    13    6    7 ar
    14    6    8 1
    15    7   38 1
    16    8    9 1
    17    8   31 2
    18    9   15 2
    19    9   10 1
    20   10   11 1
    21   10   12 1
    22   10   24 1
    23   12   13 am
    24   12   17 1
    25   13   14 2
    26   13   15 1
    27   15   16 1
    28   17   18 1
    29   17   39 1
    30   17   40 1
    31   18   23 ar
    32   18   19 ar
    33   19   20 ar
    34   19   41 1
    35   20   21 ar
    36   20   42 1
    37   21   22 ar
    38   21   43 1
    39   22   23 ar
    40   22   44 1
    41   23   45 1
    42   24   29 ar
    43   24   25 ar
    44   25   26 ar
    45   25   46 1
    46   26   27 ar
    47   26   47 1
    48   27   28 ar
    49   27   48 1
    50   28   29 ar
    51   28   30 1
    52   29   49 1
    53   30   50 1
    54   32   51 1
    55   32   52 1
    56   32   53 1
@<TRIPOS>MOLECULE
ZINC40046302
   52    54     0     0     0
SMALL
USER_CHARGES

@<TRIPOS>ATOM
      1 C1          0.2724    2.6892   -0.4376 C.3       1 <0>        -0.1385
      2 C2          0.4158    1.2107   -0.0712 C.3       1 <0>        -0.0272
      3 C3          1.3421    1.0726    1.1387 C.3       1 <0>        -0.1362
      4 C4         -0.9595    0.6343    0.2710 C.3       1 <0>        -0.1417
      5 C5          0.9995    0.4581   -1.2391 C.ar      1 <0>        -0.0808
      6 C6          0.2872   -0.5731   -1.8224 C.ar      1 <0>        -0.1236
      7 C7          0.8226   -1.2634   -2.8937 C.ar      1 <0>        -0.1140
      8 C8          2.0700   -0.9223   -3.3820 C.ar      1 <0>        -0.0756
      9 C9          2.7818    0.1095   -2.7993 C.ar      1 <0>        -0.0849
     10 C10         2.2446    0.8027   -1.7308 C.ar      1 <0>        -0.1162
     11 C11         2.6540   -1.6755   -4.5493 C.3       1 <0>         0.2643
     12 H1          2.0807   -2.5841   -4.7334 H         1 <0>         0.0688
     13 C12         2.6551   -0.8029   -5.7827 C.2       1 <0>        -0.5025
     14 C13         3.9457   -0.6667   -6.1634 C.2       1 <0>         0.2665
     15 C14         4.8096   -1.4165   -5.2297 C.2       1 <0>         0.5133
     16 O1          6.0203   -1.4880   -5.3047 O.2       1 <0>        -0.5337
     17 N1          4.0580   -2.0099   -4.2827 N.am      1 <0>        -0.6099
     18 C15         4.5527   -2.8402   -3.1817 C.3       1 <0>         0.1421
     19 C16         4.6031   -4.3026   -3.6285 C.3       1 <0>        -0.1395
     20 C17         5.1197   -5.1697   -2.4787 C.3       1 <0>         0.0807
     21 O2          5.1667   -6.5356   -2.8959 O.3       1 <0>        -0.5737
     22 O3          4.3772    0.0446   -7.2315 O.3       1 <0>        -0.6521
     23 C18         1.4816   -0.2164   -6.4413 C.2       1 <0>         0.5432
     24 O4          1.3360    0.9931   -6.4626 O.2       1 <0>        -0.4639
     25 C19         0.4852   -1.0855   -7.0729 C.2       1 <0>        -0.2225
     26 C20        -0.6499   -0.7366   -7.7942 C.2       1 <0>        -0.1117
     27 C21        -1.3994   -1.7844   -8.2688 C.2       1 <0>        -0.1785
     28 C22        -0.9958   -3.0547   -8.0110 C.2       1 <0>        -0.2629
     29 S1          0.4177   -2.8663   -7.1229 S.3       1 <0>         0.2223
     30 H2          1.2522    3.0999   -0.6814 H         1 <0>         0.0571
     31 H3         -0.3875    2.7876   -1.2995 H         1 <0>         0.0569
     32 H4         -0.1498    3.2336    0.4072 H         1 <0>         0.0536
     33 H5          0.9200    1.6170    1.9835 H         1 <0>         0.0537
     34 H6          1.4443    0.0193    1.3997 H         1 <0>         0.0546
     35 H7          2.3219    1.4833    0.8949 H         1 <0>         0.0564
     36 H8         -1.6194    0.7326   -0.5909 H         1 <0>         0.0583
     37 H9         -0.8573   -0.4191    0.5321 H         1 <0>         0.0572
     38 H10        -1.3816    1.1786    1.1158 H         1 <0>         0.0535
     39 H11        -0.6874   -0.8397   -1.4408 H         1 <0>         0.1202
     40 H12         0.2664   -2.0696   -3.3489 H         1 <0>         0.1173
     41 H13         3.7565    0.3759   -3.1807 H         1 <0>         0.1161
     42 H14         2.7992    1.6112   -1.2779 H         1 <0>         0.1145
     43 H15         5.5531   -2.5117   -2.9001 H         1 <0>         0.0785
     44 H16         3.8845   -2.7445   -2.3259 H         1 <0>         0.0766
     45 H17         3.6026   -4.6311   -3.9101 H         1 <0>         0.0733
     46 H18         5.2713   -4.3983   -4.4843 H         1 <0>         0.0749
     47 H19         6.1202   -4.8412   -2.1970 H         1 <0>         0.0463
     48 H20         4.4515   -5.0740   -1.6228 H         1 <0>         0.0457
     49 H21         5.4858   -7.1440   -2.2154 H         1 <0>         0.3762
     50 H22        -0.9252    0.2928   -7.9699 H         1 <0>         0.1415
     51 H23        -2.2978   -1.6007   -8.8392 H         1 <0>         0.1264
     52 H24        -1.4722   -3.9760   -8.3120 H         1 <0>         0.1795
@<TRIPOS>BOND
     1    1    2 1
     2    1   30 1
     3    1   31 1
     4    1   32 1
     5    2    3 1
     6    2    4 1
     7    2    5 1
     8    3   33 1
     9    3   34 1
    10    3   35 1
    11    4   36 1
    12    4   37 1
    13    4   38 1
    14    5   10 ar
    15    5    6 ar
    16    6    7 ar
    17    6   39 1
    18    7    8 ar
    19    7   40 1
    20    8    9 ar
    21    8   11 1
    22    9   10 ar
    23    9   41 1
    24   10   42 1
    25   11   12 1
    26   11   17 1
    27   11   13 1
    28   13   14 2
    29   13   23 1
    30   14   15 1
    31   14   22 1
    32   15   16 2
    33   15   17 am
    34   17   18 1
    35   18   19 1
    36   18   43 1
    37   18   44 1
    38   19   20 1
    39   19   45 1
    40   19   46 1
    41   20   21 1
    42   20   47 1
    43   20   48 1
    44   21   49 1
    45   23   24 2
    46   23   25 1
    47   25   29 1
    48   25   26 2
    49   26   27 1
    50   26   50 1
    51   27   28 2
    52   27   51 1
    53   28   29 1
    54   28   52 1
@<TRIPOS>MOLECULE
ZINC40127397
   50    53     0     0     0
SMALL
USER_CHARGES

@<TRIPOS>ATOM
      1 C1          0.0160    1.3129    1.9825 C.3       1 <0>        -0.1163
      2 C2          0.0324   -0.1693    1.7110 C.ar      1 <0>        -0.0792
      3 C3          0.0879   -0.6332    0.4100 C.ar      1 <0>        -0.1252
      4 C4          0.1029   -1.9928    0.1610 C.ar      1 <0>        -0.0906
      5 C5          0.0629   -2.8886    1.2130 C.ar      1 <0>        -0.0988
      6 C6          0.0083   -2.4248    2.5141 C.ar      1 <0>        -0.0904
      7 C7         -0.0024   -1.0651    2.7633 C.ar      1 <0>        -0.1248
      8 C8          0.0782   -4.3709    0.9416 C.3       1 <0>         0.1005
      9 O1          1.4292   -4.8355    0.9104 O.3       1 <0>        -0.3085
     10 C9          1.6206   -6.1581    0.6752 C.ar      1 <0>         0.1411
     11 C10         0.5263   -6.9917    0.4725 C.ar      1 <0>        -0.2248
     12 C11         0.7160   -8.3340    0.2336 C.ar      1 <0>        -0.0328
     13 C12         2.0114   -8.8589    0.1946 C.ar      1 <0>        -0.1741
     14 C13         3.1091   -8.0171    0.3985 C.ar      1 <0>        -0.0253
     15 C14         2.9107   -6.6751    0.6320 C.ar      1 <0>        -0.1668
     16 C15         2.2195  -10.2978   -0.0607 C.2       1 <0>         0.5071
     17 O2          1.2621  -11.0408   -0.1719 O.2       1 <0>        -0.4769
     18 C16         3.5799  -10.8320   -0.1804 C.2       1 <0>        -0.5048
     19 C17         4.1825  -11.7019    0.6631 C.2       1 <0>         0.2625
     20 C18         5.5502  -11.9808    0.1774 C.2       1 <0>         0.5118
     21 O3          6.3443  -12.7242    0.7186 O.2       1 <0>        -0.5377
     22 N1          5.7861  -11.2897   -0.9526 N.am      1 <0>        -0.7239
     23 C19         4.5767  -10.5222   -1.2727 C.3       1 <0>         0.2611
     24 H1          4.8037   -9.4561   -1.2817 H         1 <0>         0.0750
     25 C20         4.0283  -10.9473   -2.6105 C.ar      1 <0>        -0.0609
     26 C21         3.9800  -12.2885   -2.9431 C.ar      1 <0>        -0.0861
     27 C22         3.4772  -12.6792   -4.1699 C.ar      1 <0>        -0.1089
     28 C23         3.0225  -11.7290   -5.0652 C.ar      1 <0>        -0.1201
     29 C24         3.0705  -10.3871   -4.7329 C.ar      1 <0>        -0.0344
     30 C25         3.5685   -9.9970   -3.5022 C.ar      1 <0>        -0.1056
     31 Cl1         2.4997   -9.1933   -5.8567 Cl        1 <0>        -0.0838
     32 O4          3.6219  -12.2321    1.7745 O.3       1 <0>        -0.6525
     33 H2          1.0390    1.6747    2.0856 H         1 <0>         0.0716
     34 H3         -0.4699    1.8286    1.1542 H         1 <0>         0.0665
     35 H4         -0.5329    1.5075    2.9039 H         1 <0>         0.0666
     36 H5          0.1192    0.0667   -0.4119 H         1 <0>         0.1238
     37 H6          0.1456   -2.3552   -0.8555 H         1 <0>         0.1249
     38 H7         -0.0234   -3.1247    3.3360 H         1 <0>         0.1253
     39 H8         -0.0413   -0.7027    3.7799 H         1 <0>         0.1240
     40 H9         -0.4665   -4.8903    1.7299 H         1 <0>         0.0718
     41 H10        -0.3965   -4.5692   -0.0194 H         1 <0>         0.0716
     42 H11        -0.4739   -6.5854    0.5028 H         1 <0>         0.1263
     43 H12        -0.1345   -8.9809    0.0770 H         1 <0>         0.1318
     44 H13         4.1112   -8.4186    0.3692 H         1 <0>         0.1413
     45 H14         3.7582   -6.0234    0.7855 H         1 <0>         0.1307
     46 H15         6.6083  -11.3002   -1.4671 H         1 <0>         0.4069
     47 H16         4.3358  -13.0311   -2.2443 H         1 <0>         0.1250
     48 H17         3.4397  -13.7269   -4.4292 H         1 <0>         0.1280
     49 H18         2.6303  -12.0344   -6.0240 H         1 <0>         0.1271
     50 H19         3.6021   -8.9497   -3.2404 H         1 <0>         0.1309
@<TRIPOS>BOND
     1    1    2 1
     2    1   33 1
     3    1   34 1
     4    1   35 1
     5    2    7 ar
     6    2    3 ar
     7    3    4 ar
     8    3   36 1
     9    4    5 ar
    10    4   37 1
    11    5    6 ar
    12    5    8 1
    13    6    7 ar
    14    6   38 1
    15    7   39 1
    16    8    9 1
    17    8   40 1
    18    8   41 1
    19    9   10 1
    20   10   15 ar
    21   10   11 ar
    22   11   12 ar
    23   11   42 1
    24   12   13 ar
    25   12   43 1
    26   13   14 ar
    27   13   16 1
    28   14   15 ar
    29   14   44 1
    30   15   45 1
    31   16   17 2
    32   16   18 1
    33   18   23 1
    34   18   19 2
    35   19   20 1
    36   19   32 1
    37   20   21 2
    38   20   22 am
    39   22   23 1
    40   22   46 1
    41   23   24 1
    42   23   25 1
    43   25   30 ar
    44   25   26 ar
    45   26   27 ar
    46   26   47 1
    47   27   28 ar
    48   27   48 1
    49   28   29 ar
    50   28   49 1
    51   29   30 ar
    52   29   31 1
    53   30   50 1
@<TRIPOS>MOLECULE
ZINC17307165
   43    45     0     0     0
SMALL
USER_CHARGES

@<TRIPOS>ATOM
      1 C1         -1.5133    0.9656   -0.5660 C.3       1 <0>        -0.1529
      2 C2         -1.1226   -0.4387   -0.1008 C.3       1 <0>         0.0510
      3 O1         -2.0382   -0.8796    0.9038 O.3       1 <0>        -0.3052
      4 C3         -1.8312   -2.1175    1.4274 C.ar      1 <0>         0.0946
      5 C4         -0.7698   -2.8840    0.9881 C.ar      1 <0>        -0.1596
      6 C5         -0.5595   -4.1579    1.5299 C.ar      1 <0>        -0.0707
      7 C6         -1.4270   -4.6470    2.5142 C.ar      1 <0>        -0.0602
      8 C7         -2.4830   -3.8749    2.9460 C.ar      1 <0>        -0.1167
      9 C8         -2.6872   -2.6098    2.4117 C.ar      1 <0>         0.1039
     10 O2         -3.7275   -1.8512    2.8456 O.3       1 <0>        -0.4855
     11 C9          0.5668   -4.9785    1.0670 C.2       1 <0>         0.0797
     12 C10         0.4185   -6.3211    0.9331 C.2       1 <0>        -0.2349
     13 C11        -0.8030   -7.1425    1.0331 C.2       1 <0>         0.5479
     14 O3         -1.8882   -6.6431    1.2663 O.2       1 <0>        -0.4687
     15 N1         -0.6653   -8.4458    0.8573 N.am      1 <0>        -0.6873
     16 C12         0.5718   -8.9921    0.5937 C.2       1 <0>         0.3931
     17 N2          0.8824  -10.2535    0.3943 N.2       1 <0>        -0.4655
     18 C13        -0.1045  -11.1990    0.3284 C.ar      1 <0>         0.1454
     19 C14        -1.2037  -11.0086   -0.5127 C.ar      1 <0>        -0.1652
     20 C15        -2.1945  -11.9659   -0.5745 C.ar      1 <0>        -0.0647
     21 C16        -2.1017  -13.1130    0.1942 C.ar      1 <0>        -0.1270
     22 C17        -1.0161  -13.3082    1.0293 C.ar      1 <0>        -0.0533
     23 C18        -0.0150  -12.3615    1.0972 C.ar      1 <0>        -0.1785
     24 C19         1.1696  -12.5785    2.0031 C.3       1 <0>         0.5155
     25 F1          1.0334  -13.8044    2.6633 F         1 <0>        -0.1785
     26 F2          2.3434  -12.5866    1.2420 F         1 <0>        -0.1652
     27 F3          1.2317  -11.5460    2.9451 F         1 <0>        -0.1766
     28 S1          1.6489   -7.5683    0.5805 S.3       1 <0>         0.1068
     29 H1         -0.8149    1.3019   -1.3323 H         1 <0>         0.0799
     30 H2         -2.5222    0.9443   -0.9780 H         1 <0>         0.0667
     31 H3         -1.4810    1.6510    0.2809 H         1 <0>         0.0680
     32 H4         -1.1548   -1.1241   -0.9478 H         1 <0>         0.0621
     33 H5         -0.1137   -0.4174    0.3112 H         1 <0>         0.0635
     34 H6         -0.1039   -2.5021    0.2284 H         1 <0>         0.1386
     35 H7         -1.2685   -5.6292    2.9344 H         1 <0>         0.1305
     36 H8         -3.1515   -4.2531    3.7053 H         1 <0>         0.1400
     37 H9         -4.5452   -1.9826    2.3464 H         1 <0>         0.3912
     38 H10         1.5133   -4.5138    0.8331 H         1 <0>         0.1597
     39 H11        -1.4428   -9.0230    0.9149 H         1 <0>         0.4187
     40 H12        -1.2775  -10.1137   -1.1127 H         1 <0>         0.1332
     41 H13        -3.0449  -11.8198   -1.2239 H         1 <0>         0.1389
     42 H14        -2.8807  -13.8593    0.1421 H         1 <0>         0.1409
     43 H15        -0.9503  -14.2056    1.6266 H         1 <0>         0.1466
@<TRIPOS>BOND
     1    1    2 1
     2    1   29 1
     3    1   30 1
     4    1   31 1
     5    2    3 1
     6    2   32 1
     7    2   33 1
     8    3    4 1
     9    4    9 ar
    10    4    5 ar
    11    5    6 ar
    12    5   34 1
    13    6    7 ar
    14    6   11 1
    15    7    8 ar
    16    7   35 1
    17    8    9 ar
    18    8   36 1
    19    9   10 1
    20   10   37 1
    21   11   12 2
    22   11   38 1
    23   12   28 1
    24   12   13 1
    25   13   14 2
    26   13   15 am
    27   15   16 1
    28   15   39 1
    29   16   17 2
    30   16   28 1
    31   17   18 1
    32   18   23 ar
    33   18   19 ar
    34   19   20 ar
    35   19   40 1
    36   20   21 ar
    37   20   41 1
    38   21   22 ar
    39   21   42 1
    40   22   23 ar
    41   22   43 1
    42   23   24 1
    43   24   25 1
    44   24   26 1
    45   24   27 1
@<TRIPOS>MOLECULE
ZINC05408996
   46    48     0     0     0
SMALL
USER_CHARGES
(4E,5R)-5-(2-chlorophenyl)-1-[(2S)-2-hydroxypropyl]-4-[hydroxy(p-tolyl)methylene]pyrrolidine-2,3-dione
@<TRIPOS>ATOM
      1 C1          4.2029    5.2760   -0.9731 C.3       1 <0>        -0.1091
      2 C2          3.0578    4.3243   -0.7405 C.ar      1 <0>        -0.0942
      3 C3          3.2530    3.1856    0.0220 C.ar      1 <0>        -0.1364
      4 C4          2.2103    2.3101    0.2393 C.ar      1 <0>        -0.0873
      5 C5          0.9531    2.5749   -0.3129 C.ar      1 <0>        -0.0752
      6 C6          0.7653    3.7244   -1.0869 C.ar      1 <0>        -0.0478
      7 C7          1.8163    4.5935   -1.2901 C.ar      1 <0>        -0.1311
      8 C8         -0.1666    1.6443   -0.0855 C.2       1 <0>         0.3947
      9 C9         -1.3796    2.1219    0.3658 C.2       1 <0>        -0.4974
     10 C10        -2.6675    1.3434    0.5036 C.3       1 <0>         0.2679
     11 H1         -2.5631    0.4938    1.1944 H         1 <0>         0.0686
     12 N1         -3.6704    2.2789    1.0208 N.am      1 <0>        -0.6005
     13 C11        -3.0997    3.4836    1.1882 C.2       1 <0>         0.4948
     14 O1         -3.6696    4.4716    1.6040 O.2       1 <0>        -0.5222
     15 C12        -1.6652    3.4283    0.7955 C.2       1 <0>         0.3774
     16 O2         -0.8767    4.3550    0.8374 O.3       1 <0>        -0.4980
     17 C13        -5.0693    1.9528    1.3086 C.3       1 <0>         0.1443
     18 C14        -5.1950    1.4806    2.7585 C.3       1 <0>         0.0912
     19 H2         -4.4735    0.6808    2.9815 H         1 <0>         0.0521
     20 C15        -6.6306    1.0223    3.0230 C.3       1 <0>        -0.1805
     21 O3         -4.8686    2.5569    3.6400 O.3       1 <0>        -0.5790
     22 C16        -3.0983    0.8164   -0.8409 C.ar      1 <0>        -0.0566
     23 C17        -2.9854   -0.5321   -1.1233 C.ar      1 <0>        -0.0788
     24 C18        -3.3808   -1.0157   -2.3563 C.ar      1 <0>        -0.1217
     25 C19        -3.8896   -0.1512   -3.3078 C.ar      1 <0>        -0.1211
     26 C20        -4.0025    1.1972   -3.0268 C.ar      1 <0>        -0.1218
     27 C21        -3.6121    1.6810   -1.7906 C.ar      1 <0>        -0.0223
     28 Cl1        -3.7614    3.3734   -1.4338 Cl        1 <0>        -0.0609
     29 O4         -0.0070    0.3252   -0.3239 O.2       1 <0>        -0.6398
     30 H3          5.1019    4.8995   -0.4632 H         1 <0>         0.0592
     31 H4          3.9427    6.2673   -0.5735 H         1 <0>         0.0641
     32 H5          4.3998    5.3559   -2.0524 H         1 <0>         0.0626
     33 H6          4.2244    2.9827    0.4481 H         1 <0>         0.1137
     34 H7          2.3640    1.4223    0.8348 H         1 <0>         0.1182
     35 H8         -0.2015    3.9332   -1.5207 H         1 <0>         0.1156
     36 H9          1.6717    5.4842   -1.8836 H         1 <0>         0.1136
     37 H10        -5.6925    2.8468    1.1588 H         1 <0>         0.0839
     38 H11        -5.4061    1.1535    0.6321 H         1 <0>         0.0854
     39 H12        -6.7209    0.6828    4.0654 H         1 <0>         0.0572
     40 H13        -6.8819    0.1938    2.3445 H         1 <0>         0.0635
     41 H14        -7.3210    1.8608    2.8493 H         1 <0>         0.0636
     42 H15        -4.9029    2.4056    4.7290 H         1 <0>         0.3930
     43 H16        -2.5884   -1.2079   -0.3803 H         1 <0>         0.1290
     44 H17        -3.2928   -2.0694   -2.5764 H         1 <0>         0.1213
     45 H18        -4.1991   -0.5297   -4.2708 H         1 <0>         0.1223
     46 H19        -4.4003    1.8723   -3.7700 H         1 <0>         0.1241
@<TRIPOS>BOND
     1    1    2 1
     2    1   30 1
     3    1   31 1
     4    1   32 1
     5    2    7 ar
     6    2    3 ar
     7    3    4 ar
     8    3   33 1
     9    4    5 ar
    10    4   34 1
    11    5    6 ar
    12    5    8 1
    13    6    7 ar
    14    6   35 1
    15    7   36 1
    16    8    9 1
    17    8   29 2
    18    9   15 2
    19    9   10 1
    20   10   11 1
    21   10   12 1
    22   10   22 1
    23   12   13 am
    24   12   17 1
    25   13   14 2
    26   13   15 1
    27   15   16 1
    28   17   18 1
    29   17   37 1
    30   17   38 1
    31   18   19 1
    32   18   20 1
    33   18   21 1
    34   20   39 1
    35   20   40 1
    36   20   41 1
    37   21   42 1
    38   22   27 ar
    39   22   23 ar
    40   23   24 ar
    41   23   43 1
    42   24   25 ar
    43   24   44 1
    44   25   26 ar
    45   25   45 1
    46   26   27 ar
    47   26   46 1
    48   27   28 1
@<TRIPOS>MOLECULE
ZINC44299118
   37    37     0     0     0
SMALL
USER_CHARGES

@<TRIPOS>ATOM
      1 C1         -0.0187    1.5258    0.0104 C.3       1 <0>        -0.1836
      2 C2          0.0021   -0.0041    0.0020 C.3       1 <0>         0.1355
      3 C3          0.7421   -0.5109    1.2415 C.3       1 <0>        -0.1850
      4 C4         -1.4333   -0.5336    0.0129 C.3       1 <0>        -0.1372
      5 O1          0.6709   -0.4649   -1.1737 O.3       1 <0>        -0.3656
      6 C5          1.9522   -0.0848   -1.3367 C.2       1 <0>         0.6546
      7 O2          2.4879    0.6189   -0.5034 O.2       1 <0>        -0.5706
      8 N1          2.6407   -0.4850   -2.4240 N.am      1 <0>        -0.6762
      9 C6          4.0349   -0.0714   -2.6014 C.3       1 <0>         0.0992
     10 H1          4.1672    0.9374   -2.2104 H         1 <0>         0.0892
     11 C7          4.3875   -0.0917   -4.0900 C.3       1 <0>        -0.0777
     12 C8          3.5687    0.9456   -4.8144 C.ar      1 <0>        -0.0311
     13 C9          2.3323    0.6106   -5.3338 C.ar      1 <0>        -0.1341
     14 C10         1.5799    1.5633   -5.9992 C.ar      1 <0>         0.1075
     15 C11         2.0668    2.8514   -6.1440 C.ar      1 <0>        -0.1394
     16 C12         3.3038    3.1847   -5.6238 C.ar      1 <0>        -0.0603
     17 C13         4.0520    2.2329   -4.9541 C.ar      1 <0>        -0.0957
     18 Br1         3.9696    4.9436   -5.8210 Br        1 <0>        -0.0430
     19 F1          0.3716    1.2363   -6.5075 F         1 <0>        -0.1355
     20 C14         4.9389   -1.0207   -1.8580 C.2       1 <0>         0.4916
     21 O3          4.4878   -2.0531   -1.3920 O.co2     1 <0>        -0.6798
     22 O4          6.1214   -0.7564   -1.7227 O.co2     1 <0>        -0.6914
     23 H2          1.0039    1.9031    0.0027 H         1 <0>         0.0894
     24 H3         -0.5459    1.8868   -0.8726 H         1 <0>         0.0545
     25 H4         -0.5289    1.8773    0.9072 H         1 <0>         0.0636
     26 H5          0.2319   -0.1594    2.1383 H         1 <0>         0.0621
     27 H6          0.7568   -1.6008    1.2356 H         1 <0>         0.0588
     28 H7          1.7647   -0.1336    1.2338 H         1 <0>         0.0915
     29 H8         -1.9605   -0.1726   -0.8702 H         1 <0>         0.0625
     30 H9         -1.4185   -1.6235    0.0069 H         1 <0>         0.0648
     31 H10        -1.9435   -0.1821    0.9097 H         1 <0>         0.0748
     32 H11         2.2131   -1.0467   -3.0892 H         1 <0>         0.3943
     33 H12         5.4474    0.1295   -4.2154 H         1 <0>         0.1043
     34 H13         4.1709   -1.0777   -4.5013 H         1 <0>         0.0831
     35 H14         1.9534   -0.3945   -5.2207 H         1 <0>         0.1404
     36 H15         1.4808    3.5953   -6.6633 H         1 <0>         0.1412
     37 H16         5.0162    2.4948   -4.5441 H         1 <0>         0.1432
@<TRIPOS>BOND
     1    1    2 1
     2    1   23 1
     3    1   24 1
     4    1   25 1
     5    2    3 1
     6    2    4 1
     7    2    5 1
     8    3   26 1
     9    3   27 1
    10    3   28 1
    11    4   29 1
    12    4   30 1
    13    4   31 1
    14    5    6 1
    15    6    7 2
    16    6    8 am
    17    8    9 1
    18    8   32 1
    19    9   10 1
    20    9   11 1
    21    9   20 1
    22   11   12 1
    23   11   33 1
    24   11   34 1
    25   12   17 ar
    26   12   13 ar
    27   13   14 ar
    28   13   35 1
    29   14   15 ar
    30   14   19 1
    31   15   16 ar
    32   15   36 1
    33   16   17 ar
    34   16   18 1
    35   17   37 1
    36   20   21 2
    37   20   22 1
@<TRIPOS>MOLECULE
ZINC56055449
   33    34     0     0     0
SMALL
USER_CHARGES

@<TRIPOS>ATOM
      1 C1          0.8669   -1.2924    1.8512 C.3       1 <0>        -0.1485
      2 C2         -0.0291   -1.8334    0.7352 C.3       1 <0>         0.0650
      3 O1          0.7525   -2.0470   -0.4418 O.3       1 <0>        -0.3412
      4 C3          0.1098   -2.5248   -1.5238 C.2       1 <0>         0.5540
      5 O2         -1.0806   -2.7539   -1.4704 O.2       1 <0>        -0.4924
      6 C4          0.8588   -2.7720   -2.7847 C.2       1 <0>         0.3344
      7 C5          1.3649   -4.0662   -3.0576 C.2       1 <0>        -0.4015
      8 C6          2.1193   -4.2484   -4.3620 C.3       1 <0>         0.2961
      9 H1          1.6158   -5.0237   -4.9394 H         1 <0>         0.0814
     10 N1          2.2477   -3.0528   -5.2141 N.pl3     1 <0>        -0.6812
     11 C7          1.6987   -1.8989   -4.7898 C.2       1 <0>         0.5688
     12 S1          1.8487   -0.5110   -5.7808 S.2       1 <0>        -0.6687
     13 N2          1.0401   -1.7880   -3.6380 N.2       1 <0>        -0.5862
     14 C8          3.5069   -4.7379   -4.0364 C.2       1 <0>        -0.1409
     15 C9          4.5309   -4.0720   -3.4486 C.2       1 <0>        -0.1250
     16 C10         5.7302   -4.7298   -3.2466 C.2       1 <0>        -0.1104
     17 C11         5.8461   -6.0214   -3.6425 C.2       1 <0>        -0.1528
     18 S2          4.2259   -6.3476   -4.3177 S.3       1 <0>         0.0786
     19 Br1         7.1868   -3.8414   -2.4311 Br        1 <0>        -0.0411
     20 C12         1.1847   -5.0927   -2.1954 C.2       1 <0>         0.3506
     21 O3          0.4390   -4.9184   -1.0872 O.3       1 <0>        -0.5948
     22 C13         1.8182   -6.4313   -2.4744 C.3       1 <0>        -0.1717
     23 H2          1.6561   -2.0131    2.0650 H         1 <0>         0.0646
     24 H3          1.3122   -0.3492    1.5346 H         1 <0>         0.0645
     25 H4          0.2707   -1.1294    2.7490 H         1 <0>         0.0748
     26 H5         -0.4744   -2.7766    1.0518 H         1 <0>         0.0689
     27 H6         -0.8184   -1.1126    0.5214 H         1 <0>         0.0625
     28 H7          2.7175   -3.0962   -6.0616 H         1 <0>         0.4216
     29 H8          4.4119   -3.0430   -3.1430 H         1 <0>         0.1403
     30 H9          6.6964   -6.6827   -3.5653 H         1 <0>         0.1942
     31 H10         2.9031   -6.3364   -2.4288 H         1 <0>         0.0862
     32 H11         1.4850   -7.1534   -1.7290 H         1 <0>         0.0743
     33 H12         1.5248   -6.7722   -3.4673 H         1 <0>         0.0755
@<TRIPOS>BOND
     1    1    2 1
     2    1   23 1
     3    1   24 1
     4    1   25 1
     5    2    3 1
     6    2   26 1
     7    2   27 1
     8    3    4 1
     9    4    5 2
    10    4    6 1
    11    6   13 2
    12    6    7 1
    13    7    8 1
    14    7   20 2
    15    8    9 1
    16    8   10 1
    17    8   14 1
    18   10   11 1
    19   10   28 1
    20   11   12 2
    21   11   13 1
    22   14   18 1
    23   14   15 2
    24   15   16 1
    25   15   29 1
    26   16   17 2
    27   16   19 1
    28   17   18 1
    29   17   30 1
    30   20   21 1
    31   20   22 1
    32   22   31 1
    33   22   32 1
    34   22   33 1
@<TRIPOS>MOLECULE
ZINC16121120
   37    38     0     0     0
SMALL
USER_CHARGES

@<TRIPOS>ATOM
      1 C1         -0.0157    1.3058    0.0092 C.2       1 <0>        -0.1797
      2 C2          0.0021   -0.0041    0.0020 C.2       1 <0>        -0.1646
      3 C3         -1.2926   -0.7753    0.0102 C.3       1 <0>         0.1508
      4 N1         -1.3176   -1.6997   -1.1260 N.am      1 <0>        -0.7490
      5 C4         -2.3857   -2.4981   -1.3218 C.2       1 <0>         0.5626
      6 O1         -3.3286   -2.4510   -0.5554 O.2       1 <0>        -0.4993
      7 C5         -2.4108   -3.4284   -2.4653 C.ar      1 <0>        -0.2200
      8 C6         -1.3272   -3.4901   -3.3454 C.ar      1 <0>        -0.0409
      9 C7         -1.3568   -4.3614   -4.4119 C.ar      1 <0>        -0.2399
     10 C8         -2.4571   -5.1787   -4.6182 C.ar      1 <0>        -0.0427
     11 C9         -3.5350   -5.1294   -3.7586 C.ar      1 <0>        -0.2666
     12 C10        -3.5207   -4.2617   -2.6733 C.ar      1 <0>         0.3315
     13 N2         -4.6019   -4.2146   -1.8030 N.2       1 <0>        -1.0212
     14 S1         -5.9093   -5.1998   -2.0526 S.o2      1 <0>         2.5843
     15 O2         -6.5147   -4.7719   -3.2649 O.2       1 <0>        -1.0086
     16 O3         -5.4571   -6.5325   -1.8558 O.2       1 <0>        -1.0086
     17 C11        -7.0665   -4.8656   -0.7666 C.ar      1 <0>        -0.6109
     18 C12        -7.0088   -5.5772    0.4183 C.ar      1 <0>         0.0619
     19 C13        -7.9177   -5.3144    1.4278 C.ar      1 <0>        -0.1400
     20 C14        -8.8836   -4.3414    1.2523 C.ar      1 <0>        -0.0600
     21 C15        -8.9419   -3.6301    0.0686 C.ar      1 <0>        -0.1401
     22 C16        -8.0296   -3.8877   -0.9392 C.ar      1 <0>         0.0618
     23 Cl1        -8.0980   -2.9889   -2.4228 Cl        1 <0>        -0.0165
     24 Cl2        -5.7964   -6.8000    0.6384 Cl        1 <0>        -0.0166
     25 H1          0.9122    1.8585    0.0033 H         1 <0>         0.0983
     26 H2         -0.9582    1.8330    0.0166 H         1 <0>         0.0985
     27 H3          0.9446   -0.5313   -0.0098 H         1 <0>         0.1120
     28 H4         -1.3737   -1.3393    0.9394 H         1 <0>         0.0684
     29 H5         -2.1295   -0.0812   -0.0676 H         1 <0>         0.0638
     30 H6         -0.5655   -1.7372   -1.7373 H         1 <0>         0.3910
     31 H7         -0.4676   -2.8551   -3.1898 H         1 <0>         0.1052
     32 H8         -0.5184   -4.4077   -5.0911 H         1 <0>         0.1050
     33 H9         -2.4709   -5.8583   -5.4575 H         1 <0>         0.1046
     34 H10        -4.3887   -5.7693   -3.9265 H         1 <0>         0.1026
     35 H11        -7.8727   -5.8698    2.3529 H         1 <0>         0.1408
     36 H12        -9.5934   -4.1371    2.0403 H         1 <0>         0.1416
     37 H13        -9.6970   -2.8702   -0.0680 H         1 <0>         0.1407
@<TRIPOS>BOND
     1    1    2 2
     2    1   25 1
     3    1   26 1
     4    2    3 1
     5    2   27 1
     6    3    4 1
     7    3   28 1
     8    3   29 1
     9    4    5 am
    10    4   30 1
    11    5    6 2
    12    5    7 1
    13    7   12 ar
    14    7    8 ar
    15    8    9 ar
    16    8   31 1
    17    9   10 ar
    18    9   32 1
    19   10   11 ar
    20   10   33 1
    21   11   12 ar
    22   11   34 1
    23   12   13 1
    24   13   14 1
    25   14   15 2
    26   14   16 2
    27   14   17 1
    28   17   22 ar
    29   17   18 ar
    30   18   19 ar
    31   18   24 1
    32   19   20 ar
    33   19   35 1
    34   20   21 ar
    35   20   36 1
    36   21   22 ar
    37   21   37 1
    38   22   23 1
@<TRIPOS>MOLECULE
ZINC55127537
   38    39     0     0     0
SMALL
USER_CHARGES

@<TRIPOS>ATOM
      1 C1         -0.0184    1.5028    0.0103 C.3       1 <0>        -0.1702
      2 C2          0.0021   -0.0041    0.0020 C.ar      1 <0>         0.0582
      3 C3          0.0057   -0.6863   -1.2019 C.ar      1 <0>        -0.1571
      4 C4          0.0249   -2.0655   -1.2165 C.ar      1 <0>        -0.0431
      5 C5          0.0405   -2.7730   -0.0133 C.ar      1 <0>        -0.1762
      6 C6          0.0368   -2.0788    1.1974 C.ar      1 <0>         0.0385
      7 C7          0.0229   -0.6991    1.1980 C.ar      1 <0>        -0.6327
      8 S1          0.0248    0.1795    2.7253 S.o2      1 <0>         2.6080
      9 O1         -1.0151    1.1441    2.6403 O.2       1 <0>        -1.0192
     10 O2          0.0751   -0.7976    3.7558 O.2       1 <0>        -1.0201
     11 N1          1.4477    1.0231    2.8031 N.2       1 <0>        -1.0733
     12 C8          1.7278    1.8204    3.9173 C.ar      1 <0>         0.2639
     13 C9          0.8167    1.9014    4.9615 C.ar      1 <0>        -0.2386
     14 C10         1.0964    2.6906    6.0617 C.ar      1 <0>         0.0201
     15 C11         2.2833    3.3996    6.1230 C.ar      1 <0>        -0.1911
     16 C12         3.1934    3.3215    5.0849 C.ar      1 <0>        -0.1023
     17 C13         2.9223    2.5295    3.9842 C.ar      1 <0>         0.0347
     18 F1          3.8145    2.4487    2.9729 F         1 <0>        -0.1410
     19 Cl1        -0.0429    2.7927    7.3675 Cl        1 <0>        -0.0968
     20 C14         0.0606   -4.2513   -0.0214 C.2       1 <0>         0.5678
     21 O3          0.0742   -4.8647    1.0279 O.2       1 <0>        -0.5284
     22 N2          0.0638   -4.9187   -1.1923 N.am      1 <0>        -0.7304
     23 C15         0.0836   -6.3836   -1.2003 C.3       1 <0>         0.2300
     24 C16         0.0832   -6.8666   -2.5908 C.1       1 <0>        -0.2070
     25 C17         0.0828   -7.2519   -3.6998 C.1       1 <0>        -0.1726
     26 H1          1.0042    1.8801    0.0026 H         1 <0>         0.0970
     27 H2         -0.5455    1.8639   -0.8728 H         1 <0>         0.0726
     28 H3         -0.5286    1.8543    0.9071 H         1 <0>         0.1129
     29 H4         -0.0068   -0.1377   -2.1321 H         1 <0>         0.1346
     30 H5          0.0273   -2.5967   -2.1568 H         1 <0>         0.1265
     31 H6          0.0488   -2.6203    2.1318 H         1 <0>         0.1530
     32 H7         -0.1100    1.3487    4.9143 H         1 <0>         0.1169
     33 H8          2.4990    4.0156    6.9835 H         1 <0>         0.1238
     34 H9          4.1186    3.8763    5.1356 H         1 <0>         0.1282
     35 H10         0.0529   -4.4292   -2.0296 H         1 <0>         0.4026
     36 H11         0.9811   -6.7376   -0.6930 H         1 <0>         0.0946
     37 H12        -0.7987   -6.7618   -0.6840 H         1 <0>         0.0942
     38 H13         0.0825   -7.5965   -4.6917 H         1 <0>         0.2223
@<TRIPOS>BOND
     1    1    2 1
     2    1   26 1
     3    1   27 1
     4    1   28 1
     5    2    7 ar
     6    2    3 ar
     7    3    4 ar
     8    3   29 1
     9    4    5 ar
    10    4   30 1
    11    5    6 ar
    12    5   20 1
    13    6    7 ar
    14    6   31 1
    15    7    8 1
    16    8    9 2
    17    8   10 2
    18    8   11 1
    19   11   12 1
    20   12   17 ar
    21   12   13 ar
    22   13   14 ar
    23   13   32 1
    24   14   15 ar
    25   14   19 1
    26   15   16 ar
    27   15   33 1
    28   16   17 ar
    29   16   34 1
    30   17   18 1
    31   20   21 2
    32   20   22 am
    33   22   23 1
    34   22   35 1
    35   23   24 1
    36   23   36 1
    37   23   37 1
    38   24   25 3
    39   25   38 1
@<TRIPOS>MOLECULE
ZINC16789988
   37    39     0     0     0
SMALL
USER_CHARGES
(2S)-2-[(5Z)-4-oxo-5-(2-oxoindolin-3-ylidene)-2-thioxo-thiazolidin-3-yl]pentanoic acid
@<TRIPOS>ATOM
      1 C1          0.5064   -0.7286   -3.6500 C.3       1 <0>        -0.1463
      2 C2         -0.1686   -0.1885   -2.3876 C.3       1 <0>        -0.1237
      3 C3          0.6795   -0.5429   -1.1644 C.3       1 <0>        -0.1309
      4 C4          0.0045   -0.0028    0.0980 C.3       1 <0>         0.0687
      5 H1         -1.0169   -0.3795    0.1534 H         1 <0>         0.1169
      6 C5          0.7736   -0.4563    1.3120 C.2       1 <0>         0.4727
      7 O1          1.2547    0.3599    2.0620 O.co2     1 <0>        -0.6132
      8 N1         -0.0167    1.4613    0.0521 N.am      1 <0>        -0.4895
      9 C6         -1.1798    2.0906    0.0764 C.2       1 <0>         0.5445
     10 O2         -2.2338    1.4885    0.1357 O.2       1 <0>        -0.4512
     11 C7         -1.1259    3.5775    0.0320 C.2       1 <0>        -0.1105
     12 C8         -2.1565    4.4973    0.0462 C.2       1 <0>        -0.0156
     13 C9         -3.6059    4.2257   -0.0501 C.ar      1 <0>        -0.1215
     14 C10        -4.3513    3.0549   -0.1627 C.ar      1 <0>        -0.0438
     15 C11        -5.7281    3.1241   -0.2268 C.ar      1 <0>        -0.1480
     16 C12        -6.3650    4.3530   -0.1721 C.ar      1 <0>        -0.0675
     17 C13        -5.6356    5.5192   -0.0537 C.ar      1 <0>        -0.1467
     18 C14        -4.2478    5.4710    0.0115 C.ar      1 <0>         0.1581
     19 N2         -3.2928    6.4745    0.1287 N.am      1 <0>        -0.6507
     20 C15        -2.0489    5.9665    0.1543 C.2       1 <0>         0.5613
     21 O3         -1.0169    6.6038    0.2493 O.2       1 <0>        -0.4702
     22 S1          0.6397    3.8446   -0.0522 S.3       1 <0>         0.0759
     23 C16         1.1492    2.1338   -0.0194 C.2       1 <0>         0.2707
     24 S2          2.7386    1.4992   -0.0672 S.2       1 <0>        -0.2440
     25 H2         -0.0977   -0.4761   -4.5214 H         1 <0>         0.0493
     26 H3          1.4957   -0.2825   -3.7522 H         1 <0>         0.0544
     27 H4          0.6022   -1.8118   -3.5757 H         1 <0>         0.0574
     28 H5         -1.1579   -0.6345   -2.2854 H         1 <0>         0.0615
     29 H6         -0.2643    0.8947   -2.4618 H         1 <0>         0.0440
     30 H7          1.6688   -0.0969   -1.2666 H         1 <0>         0.0946
     31 H8          0.7752   -1.6261   -1.0901 H         1 <0>         0.0970
     32 H9         -3.8539    2.0972   -0.2052 H         1 <0>         0.1679
     33 H10        -6.3098    2.2189   -0.3194 H         1 <0>         0.1331
     34 H11        -7.4428    4.3992   -0.2229 H         1 <0>         0.1329
     35 H12        -6.1443    6.4710   -0.0121 H         1 <0>         0.1303
     36 H13        -3.4982    7.4209    0.1846 H         1 <0>         0.4234
     37 O4          0.9243   -1.7668    1.5602 O.co2     1 <0>        -0.7413
@<TRIPOS>BOND
     1    1    2 1
     2    1   25 1
     3    1   26 1
     4    1   27 1
     5    2    3 1
     6    2   28 1
     7    2   29 1
     8    3    4 1
     9    3   30 1
    10    3   31 1
    11    4    5 1
    12    4    6 1
    13    4    8 1
    14    6    7 2
    15    6   37 1
    16    8   23 1
    17    8    9 am
    18    9   10 2
    19    9   11 1
    20   11   12 2
    21   11   22 1
    22   12   20 1
    23   12   13 1
    24   13   18 ar
    25   13   14 ar
    26   14   15 ar
    27   14   32 1
    28   15   16 ar
    29   15   33 1
    30   16   17 ar
    31   16   34 1
    32   17   18 ar
    33   17   35 1
    34   18   19 1
    35   19   20 am
    36   19   36 1
    37   20   21 2
    38   22   23 1
    39   23   24 2
@<TRIPOS>MOLECULE
ZINC39481002
   44    45     0     0     0
SMALL
USER_CHARGES

@<TRIPOS>ATOM
      1 C1         -0.0187    1.5258    0.0104 C.3       1 <0>        -0.1489
      2 C2          0.0021   -0.0041    0.0020 C.3       1 <0>         0.0556
      3 O1         -1.3386   -0.4987    0.0122 O.3       1 <0>        -0.3745
      4 C3         -1.4321   -1.9246    0.0054 C.3       1 <0>         0.2465
      5 H1         -0.7378   -2.3312   -0.7300 H         1 <0>         0.0260
      6 C4         -2.8617   -2.3416   -0.3558 C.3       1 <0>         0.1733
      7 N1         -2.9734   -3.8010   -0.2111 N.pl3     1 <0>        -0.6405
      8 C5         -2.5253   -4.4116    1.0498 C.3       1 <0>         0.1546
      9 C6         -1.1089   -3.9131    1.3556 C.3       1 <0>         0.0510
     10 N2         -1.0950   -2.4443    1.3374 N.3       1 <0>        -0.7003
     11 C7         -3.4929   -4.5881   -1.2459 C.ar      1 <0>         0.1106
     12 C8         -2.6477   -5.1133   -2.2116 C.ar      1 <0>        -0.0774
     13 C9         -3.1628   -5.8907   -3.2324 C.ar      1 <0>        -0.1847
     14 C10        -4.5200   -6.1470   -3.2941 C.ar      1 <0>        -0.0624
     15 C11        -5.3701   -5.6274   -2.3354 C.ar      1 <0>        -0.2563
     16 C12        -4.8614   -4.8511   -1.3052 C.ar      1 <0>         0.2594
     17 N3         -5.7197   -4.3283   -0.3302 N.2       1 <0>        -1.0102
     18 S1         -7.3440   -4.6419   -0.4029 S.o2      1 <0>         2.4928
     19 O2         -7.8306   -3.9958   -1.5712 O.2       1 <0>        -0.9566
     20 O3         -7.4984   -6.0375   -0.1839 O.2       1 <0>        -0.9360
     21 S2         -8.2156   -3.6983    1.1947 S.3       1 <0>        -0.8320
     22 C13        -8.2212   -1.9473    0.7205 C.3       1 <0>        -0.0063
     23 C14        -2.2423   -6.4599   -4.2811 C.3       1 <0>        -0.0903
     24 H2          1.0039    1.9031    0.0027 H         1 <0>         0.0670
     25 H3         -0.5459    1.8868   -0.8726 H         1 <0>         0.0628
     26 H4         -0.5289    1.8773    0.9072 H         1 <0>         0.0640
     27 H5          0.5123   -0.3556   -0.8948 H         1 <0>         0.0435
     28 H6          0.5293   -0.3651    0.8851 H         1 <0>         0.0445
     29 H7         -3.5667   -1.8520    0.3160 H         1 <0>         0.0612
     30 H8         -3.0765   -2.0583   -1.3862 H         1 <0>         0.0704
     31 H9         -3.1979   -4.1209    1.8567 H         1 <0>         0.0566
     32 H10        -2.5176   -5.4968    0.9486 H         1 <0>         0.0684
     33 H11        -0.8032   -4.2675    2.3400 H         1 <0>         0.0771
     34 H12        -0.4191   -4.2923    0.6016 H         1 <0>         0.0280
     35 H13        -1.5871   -4.9147   -2.1666 H         1 <0>         0.1050
     36 H14        -4.9174   -6.7546   -4.0937 H         1 <0>         0.1047
     37 H15        -6.4298   -5.8293   -2.3868 H         1 <0>         0.0950
     38 H16        -7.1972   -1.6126    0.5545 H         1 <0>         0.0897
     39 H17        -8.7978   -1.8209   -0.1958 H         1 <0>         0.0837
     40 H18        -8.6718   -1.3564    1.5179 H         1 <0>         0.0993
     41 H19        -1.8872   -7.4391   -3.9599 H         1 <0>         0.0518
     42 H20        -2.7822   -6.5601   -5.2227 H         1 <0>         0.0523
     43 H21        -1.3919   -5.7923   -4.4191 H         1 <0>         0.0511
     44 H22        -0.2048   -2.0869    1.6504 H         1 <0>         0.3303
@<TRIPOS>BOND
     1    1    2 1
     2    1   24 1
     3    1   25 1
     4    1   26 1
     5    2    3 1
     6    2   27 1
     7    2   28 1
     8    3    4 1
     9    4    5 1
    10    4   10 1
    11    4    6 1
    12    6    7 1
    13    6   29 1
    14    6   30 1
    15    7    8 1
    16    7   11 1
    17    8    9 1
    18    8   31 1
    19    8   32 1
    20    9   10 1
    21    9   33 1
    22    9   34 1
    23   10   44 1
    24   11   16 ar
    25   11   12 ar
    26   12   13 ar
    27   12   35 1
    28   13   14 ar
    29   13   23 1
    30   14   15 ar
    31   14   36 1
    32   15   16 ar
    33   15   37 1
    34   16   17 1
    35   17   18 1
    36   18   19 2
    37   18   20 2
    38   18   21 1
    39   21   22 1
    40   22   38 1
    41   22   39 1
    42   22   40 1
    43   23   41 1
    44   23   42 1
    45   23   43 1
@<TRIPOS>MOLECULE
ZINC40829569
   34    35     0     0     0
SMALL
USER_CHARGES

@<TRIPOS>ATOM
      1 C1         -0.2839    1.6234   -0.1503 C.3       1 <0>        -0.1005
      2 C2         -0.2622    0.1172   -0.1069 C.2       1 <0>         0.2821
      3 C3         -0.1758   -0.6223   -1.2391 C.2       1 <0>        -0.9104
      4 S1         -0.1935   -2.2735   -0.5600 S.3       1 <0>        -0.0340
      5 C4         -0.3071   -1.8550    1.0662 C.2       1 <0>         0.4289
      6 O1         -0.3643   -2.6741    2.1447 O.3       1 <0>        -0.6063
      7 N1         -0.3210   -0.5411    1.0369 N.2       1 <0>        -0.6502
      8 S2         -0.0744   -0.0988   -2.9185 S.o2      1 <0>         2.7467
      9 O2         -1.3968   -0.1395   -3.4371 O.2       1 <0>        -0.9655
     10 O3          0.7115    1.0850   -2.9281 O.2       1 <0>        -0.9672
     11 N2          0.7911   -1.2482   -3.7383 N.pl3     1 <0>        -1.0474
     12 C5          0.3232   -2.5666   -3.7981 C.ar      1 <0>         0.1738
     13 C6         -1.0385   -2.8183   -3.8761 C.ar      1 <0>        -0.1554
     14 C7         -1.4989   -4.1206   -3.9346 C.ar      1 <0>        -0.0790
     15 C8         -0.6055   -5.1756   -3.9160 C.ar      1 <0>        -0.1273
     16 C9          0.7546   -4.9339   -3.8388 C.ar      1 <0>        -0.0210
     17 C10         1.2251   -3.6296   -3.7851 C.ar      1 <0>         0.1597
     18 N3          2.6022   -3.3819   -3.7122 N.pl3     1 <0>        -0.6751
     19 C11         3.2615   -3.2883   -2.4073 C.3       1 <0>         0.1125
     20 C12         3.3827   -3.2164   -4.9408 C.3       1 <0>         0.1189
     21 Cl1         1.8725   -6.2619   -3.8157 Cl        1 <0>        -0.0687
     22 H1          0.7365    2.0031   -0.0980 H         1 <0>         0.0851
     23 H2         -0.7472    1.9534   -1.0801 H         1 <0>         0.0649
     24 H3         -0.8566    2.0030    0.6958 H         1 <0>         0.0777
     25 H4          1.6222   -1.0082   -4.1771 H         1 <0>         0.4232
     26 H5         -1.7394   -1.9967   -3.8908 H         1 <0>         0.1664
     27 H6         -2.5597   -4.3144   -3.9946 H         1 <0>         0.1369
     28 H7         -0.9703   -6.1911   -3.9615 H         1 <0>         0.1321
     29 H8          3.6080   -4.2761   -2.1036 H         1 <0>         0.0355
     30 H9          4.1124   -2.6107   -2.4779 H         1 <0>         0.0553
     31 H10         2.5548   -2.9084   -1.6695 H         1 <0>         0.0664
     32 H11         3.3933   -2.1644   -5.2256 H         1 <0>         0.0309
     33 H12         4.4040   -3.5572   -4.7711 H         1 <0>         0.0579
     34 H13         2.9315   -3.8046   -5.7399 H         1 <0>         0.0532
@<TRIPOS>BOND
     1    1    2 1
     2    1   22 1
     3    1   23 1
     4    1   24 1
     5    2    7 1
     6    2    3 2
     7    3    4 1
     8    3    8 1
     9    4    5 1
    10    5    6 1
    11    5    7 2
    12    8    9 2
    13    8   10 2
    14    8   11 1
    15   11   12 1
    16   11   25 1
    17   12   17 ar
    18   12   13 ar
    19   13   14 ar
    20   13   26 1
    21   14   15 ar
    22   14   27 1
    23   15   16 ar
    24   15   28 1
    25   16   17 ar
    26   16   21 1
    27   17   18 1
    28   18   19 1
    29   18   20 1
    30   19   29 1
    31   19   30 1
    32   19   31 1
    33   20   32 1
    34   20   33 1
    35   20   34 1
@<TRIPOS>MOLECULE
ZINC17123740
   37    39     0     0     0
SMALL
USER_CHARGES

@<TRIPOS>ATOM
      1 C1         -0.8067    2.0488    0.6531 C.3       1 <0>        -0.0959
      2 C2         -0.5697    0.5766    0.4351 C.2       1 <0>        -0.1114
      3 C3         -0.5109    0.0709   -0.8299 C.2       1 <0>        -0.0331
      4 C4         -0.2894   -1.3002   -1.0164 C.2       1 <0>        -0.1783
      5 C5         -0.1357   -2.1137    0.0527 C.2       1 <0>         0.1082
      6 N1         -0.1928   -1.6177    1.3211 N.am      1 <0>        -0.4352
      7 C6         -0.4018   -0.2837    1.5346 C.2       1 <0>         0.4340
      8 N2         -0.4561    0.2219    2.7676 N.2       1 <0>        -0.5728
      9 C7         -0.3050   -0.5408    3.8397 C.2       1 <0>         0.5026
     10 C8         -0.0796   -1.9306    3.6813 C.2       1 <0>        -0.3818
     11 C9         -0.0352   -2.4582    2.3664 C.2       1 <0>         0.5376
     12 O1          0.1558   -3.6475    2.1819 O.2       1 <0>        -0.5236
     13 C10         0.0852   -2.7691    4.8029 C.2       1 <0>         0.1087
     14 C11         1.0696   -2.4946    5.7314 C.2       1 <0>        -0.2136
     15 C12         1.3455   -3.1241    6.9727 C.2       1 <0>         0.4839
     16 O2          0.5900   -4.1604    7.4058 O.3       1 <0>        -0.5841
     17 N3          2.3391   -2.6844    7.6841 N.2       1 <0>        -0.6234
     18 C13         3.1002   -1.6590    7.2727 C.2       1 <0>         0.3893
     19 S1          2.3556   -1.2519    5.6995 S.3       1 <0>        -0.1618
     20 S2          4.4419   -0.9333    8.0498 S.2       1 <0>        -0.5486
     21 N4         -0.3661    0.0128    5.0989 N.pl3     1 <0>        -0.6748
     22 C14        -0.5989    1.4506    5.2565 C.3       1 <0>         0.1551
     23 C15        -0.6211    1.7981    6.7227 C.2       1 <0>        -0.1868
     24 C16         0.1797    2.7244    7.1885 C.2       1 <0>        -0.1510
     25 H1          0.1499    2.5705    0.6814 H         1 <0>         0.0763
     26 H2         -1.4121    2.4441   -0.1626 H         1 <0>         0.0701
     27 H3         -1.3293    2.1966    1.5982 H         1 <0>         0.0843
     28 H4         -0.6347    0.7225   -1.6823 H         1 <0>         0.1505
     29 H5         -0.2416   -1.7078   -2.0154 H         1 <0>         0.1577
     30 H6          0.0339   -3.1693   -0.1002 H         1 <0>         0.1811
     31 H7         -0.5586   -3.6260    4.9357 H         1 <0>         0.1428
     32 H8         -0.2549   -0.5492    5.8817 H         1 <0>         0.4198
     33 H9          0.2005    2.0042    4.7639 H         1 <0>         0.0777
     34 H10        -1.5554    1.7153    4.8058 H         1 <0>         0.0775
     35 H11        -1.2972    1.2836    7.3895 H         1 <0>         0.1136
     36 H12         0.8558    3.2389    6.5218 H         1 <0>         0.1015
     37 H13         0.1637    2.9734    8.2393 H         1 <0>         0.1037
@<TRIPOS>BOND
     1    1    2 1
     2    1   25 1
     3    1   26 1
     4    1   27 1
     5    2    7 1
     6    2    3 2
     7    3    4 1
     8    3   28 1
     9    4    5 2
    10    4   29 1
    11    5    6 1
    12    5   30 1
    13    6   11 am
    14    6    7 1
    15    7    8 2
    16    8    9 1
    17    9   10 2
    18    9   21 1
    19   10   11 1
    20   10   13 1
    21   11   12 2
    22   13   14 2
    23   13   31 1
    24   14   19 1
    25   14   15 1
    26   15   16 1
    27   15   17 2
    28   17   18 1
    29   18   19 1
    30   18   20 2
    31   21   22 1
    32   21   32 1
    33   22   23 1
    34   22   33 1
    35   22   34 1
    36   23   24 2
    37   23   35 1
    38   24   36 1
    39   24   37 1
@<TRIPOS>MOLECULE
ZINC66578101
   36    38     0     0     0
SMALL
USER_CHARGES

@<TRIPOS>ATOM
      1 C1         -0.0166    1.3753    0.0096 C.ar      1 <0>        -0.1179
      2 C2          1.1701    2.0869    0.0021 C.ar      1 <0>        -0.1031
      3 C3          2.3825    1.4218   -0.0131 C.ar      1 <0>        -0.1145
      4 C4          2.4156    0.0410   -0.0213 C.ar      1 <0>        -0.0196
      5 C5          1.2214   -0.6825   -0.0138 C.ar      1 <0>        -0.0611
      6 C6          0.0021   -0.0041    0.0020 C.ar      1 <0>        -0.0871
      7 C7          1.2486   -2.1601   -0.0230 C.2       1 <0>        -0.0030
      8 C8          0.1130   -2.8441   -0.0158 C.2       1 <0>        -0.6616
      9 S1          0.1454   -4.6058   -0.0268 S.o2      1 <0>         2.5946
     10 O1         -0.7530   -5.0222   -1.0459 O.2       1 <0>        -1.0275
     11 O2          1.5143   -4.9868   -0.0156 O.2       1 <0>        -1.0282
     12 N1         -0.4997   -5.1163    1.4104 N.2       1 <0>        -1.0868
     13 C9         -0.6028   -6.4847    1.6842 C.ar      1 <0>         0.2919
     14 C10        -0.1587   -7.4142    0.7527 C.ar      1 <0>        -0.2522
     15 C11        -0.2583   -8.7673    1.0191 C.ar      1 <0>        -0.0457
     16 C12        -0.8018   -9.1980    2.2166 C.ar      1 <0>        -0.0363
     17 C13        -1.2490   -8.2676    3.1534 C.ar      1 <0>         0.1300
     18 C14        -1.1438   -6.9123    2.8895 C.ar      1 <0>        -0.1847
     19 N2         -1.7991   -8.7206    4.3610 N.am      1 <0>        -0.6532
     20 C15        -1.6011  -10.0048    4.7300 C.2       1 <0>         0.4918
     21 O3         -2.0931  -10.4265    5.7553 O.2       1 <0>        -0.5377
     22 C16        -0.7665  -10.9120    3.8622 C.3       1 <0>         0.0515
     23 O4         -0.9051  -10.5270    2.4920 O.3       1 <0>        -0.3078
     24 Cl1         3.9381   -0.7929   -0.0415 Cl        1 <0>        -0.0582
     25 H1         -0.9599    1.9011    0.0260 H         1 <0>         0.1324
     26 H2          1.1494    3.1667    0.0077 H         1 <0>         0.1329
     27 H3          3.3051    1.9831   -0.0189 H         1 <0>         0.1359
     28 H4         -0.9251   -0.5578    0.0079 H         1 <0>         0.1392
     29 H5          2.1937   -2.6827   -0.0355 H         1 <0>         0.1463
     30 H6         -0.8321   -2.3215   -0.0032 H         1 <0>         0.1512
     31 H7          0.2653   -7.0792   -0.1824 H         1 <0>         0.1098
     32 H8          0.0876   -9.4878    0.2927 H         1 <0>         0.1225
     33 H9         -1.4851   -6.1905    3.6168 H         1 <0>         0.1247
     34 H10        -2.3139   -8.1206    4.9231 H         1 <0>         0.4106
     35 H11         0.2800  -10.8342    4.1569 H         1 <0>         0.0885
     36 H12        -1.1021  -11.9417    3.9855 H         1 <0>         0.1325
@<TRIPOS>BOND
     1    1    6 ar
     2    1    2 ar
     3    1   25 1
     4    2    3 ar
     5    2   26 1
     6    3    4 ar
     7    3   27 1
     8    4    5 ar
     9    4   24 1
    10    5    6 ar
    11    5    7 1
    12    6   28 1
    13    7    8 2
    14    7   29 1
    15    8    9 1
    16    8   30 1
    17    9   10 2
    18    9   11 2
    19    9   12 1
    20   12   13 1
    21   13   18 ar
    22   13   14 ar
    23   14   15 ar
    24   14   31 1
    25   15   16 ar
    26   15   32 1
    27   16   23 1
    28   16   17 ar
    29   17   18 ar
    30   17   19 1
    31   18   33 1
    32   19   20 am
    33   19   34 1
    34   20   21 2
    35   20   22 1
    36   22   23 1
    37   22   35 1
    38   22   36 1
@<TRIPOS>MOLECULE
ZINC25515946
   37    38     0     0     0
SMALL
USER_CHARGES
(E)-N-(4-fluoro-3-methanesulfonamido-phenyl)-3-(3-methyl-2-thienyl)prop-2-enamide
@<TRIPOS>ATOM
      1 C1          6.7756   -5.6573    0.4204 C.3       1 <0>        -0.1062
      2 C2          7.6812   -4.4638    0.2575 C.2       1 <0>        -0.0886
      3 C3          9.0434   -4.6041    0.1689 C.2       1 <0>        -0.1627
      4 C4          9.8172   -3.4961    0.0230 C.2       1 <0>        -0.2051
      5 S1          8.6610   -2.2046   -0.0041 S.3       1 <0>         0.1209
      6 C5          7.1742   -3.1713    0.1907 C.2       1 <0>        -0.1567
      7 C6          5.8286   -2.7359    0.2544 C.2       1 <0>         0.0172
      8 C7          5.5387   -1.4133    0.1693 C.2       1 <0>        -0.2045
      9 C8          4.1944   -0.9784    0.2329 C.2       1 <0>         0.5363
     10 O1          3.2969   -1.7913    0.3642 O.2       1 <0>        -0.5038
     11 N1          3.9065    0.3355    0.1484 N.am      1 <0>        -0.6793
     12 C9          2.5733    0.7587    0.1138 C.ar      1 <0>         0.1621
     13 C10         2.2116    1.8534   -0.6612 C.ar      1 <0>        -0.2023
     14 C11         0.8951    2.2724   -0.6967 C.ar      1 <0>        -0.1144
     15 C12        -0.0662    1.6035    0.0389 C.ar      1 <0>         0.0250
     16 C13         0.2905    0.5067    0.8167 C.ar      1 <0>         0.2244
     17 C14         1.6116    0.0849    0.8534 C.ar      1 <0>        -0.2257
     18 N2         -0.6813   -0.1696    1.5608 N.2       1 <0>        -1.0566
     19 S2         -0.2979   -0.8021    3.0425 S.o2      1 <0>         2.5256
     20 O2         -1.5219   -1.3234    3.5419 O.2       1 <0>        -0.9966
     21 O3          0.8077   -1.6599    2.7955 O.2       1 <0>        -1.0230
     22 C15         0.2261    0.6223    4.0360 C.3       1 <0>        -0.6978
     23 F1         -1.3513    2.0189    0.0066 F         1 <0>        -0.1461
     24 H1          7.3807   -6.5754    0.4498 H         1 <0>         0.0667
     25 H2          6.0768   -5.7057   -0.4277 H         1 <0>         0.0759
     26 H3          6.2083   -5.5618    1.3580 H         1 <0>         0.0769
     27 H4          9.4956   -5.5837    0.2148 H         1 <0>         0.1336
     28 H5         10.8922   -3.4354   -0.0611 H         1 <0>         0.1850
     29 H6          5.0181   -3.4701    0.3729 H         1 <0>         0.1564
     30 H7          6.3492   -0.6791    0.0508 H         1 <0>         0.1255
     31 H8          4.7196    1.0751    0.1066 H         1 <0>         0.4233
     32 H9          2.9600    2.3775   -1.2369 H         1 <0>         0.1139
     33 H10         0.6166    3.1239   -1.2997 H         1 <0>         0.1196
     34 H11         1.8911   -0.7666    1.4562 H         1 <0>         0.1756
     35 H12         0.5008    0.2838    5.0459 H         1 <0>         0.0930
     36 H13        -0.5997    1.3458    4.1037 H         1 <0>         0.1080
     37 H14         1.0950    1.1011    3.5608 H         1 <0>         0.1047
@<TRIPOS>BOND
     1    1    2 1
     2    1   24 1
     3    1   25 1
     4    1   26 1
     5    2    6 2
     6    2    3 1
     7    3    4 2
     8    3   27 1
     9    4    5 1
    10    4   28 1
    11    5    6 1
    12    6    7 1
    13    7    8 2
    14    7   29 1
    15    8    9 1
    16    8   30 1
    17    9   10 2
    18    9   11 am
    19   11   12 1
    20   11   31 1
    21   12   17 ar
    22   12   13 ar
    23   13   14 ar
    24   13   32 1
    25   14   15 ar
    26   14   33 1
    27   15   16 ar
    28   15   23 1
    29   16   17 ar
    30   16   18 1
    31   17   34 1
    32   18   19 1
    33   19   20 2
    34   19   21 2
    35   19   22 1
    36   22   35 1
    37   22   36 1
    38   22   37 1
@<TRIPOS>MOLECULE
ZINC42076179
   50    52     0     0     0
SMALL
USER_CHARGES

@<TRIPOS>ATOM
      1 C1          0.1123    1.7910    0.5036 C.3       1 <0>        -0.1157
      2 C2          0.0832    0.2956    0.3195 C.ar      1 <0>        -0.0838
      3 C3          0.0463   -0.2436   -0.9531 C.ar      1 <0>        -0.1190
      4 C4          0.0196   -1.6151   -1.1220 C.ar      1 <0>        -0.1169
      5 C5          0.0302   -2.4479   -0.0183 C.ar      1 <0>        -0.0955
      6 C6          0.0680   -1.9088    1.2538 C.ar      1 <0>        -0.0778
      7 C7          0.0990   -0.5370    1.4226 C.ar      1 <0>        -0.1194
      8 C8          0.0790   -2.8165    2.4567 C.3       1 <0>         0.1167
      9 H1          0.4594   -2.2708    3.3202 H         1 <0>         0.0570
     10 C9         -1.3441   -3.2989    2.7447 C.3       1 <0>         0.1301
     11 N1         -2.1869   -2.1527    3.0942 N.am      1 <0>        -0.7369
     12 C10        -3.4674   -2.3467    3.4672 C.2       1 <0>         0.5103
     13 O1         -3.9219   -3.4702    3.5136 O.2       1 <0>        -0.5144
     14 C11        -4.3344   -1.1677    3.8267 C.3       1 <0>        -0.0239
     15 C12        -5.7102   -1.6526    4.2049 C.2       1 <0>        -0.2685
     16 C13        -6.1980   -2.0065    5.4181 C.2       1 <0>         0.1090
     17 N2         -7.4580   -2.4006    5.4676 N.2       1 <0>        -0.5747
     18 C14        -8.1992   -2.4441    4.3801 C.2       1 <0>         0.2778
     19 S1         -9.8846   -2.9334    4.2225 S.3       1 <0>        -0.7520
     20 S2         -7.1480   -1.9113    3.1787 S.3       1 <0>         0.0064
     21 C15        -5.3410   -1.9536    6.6566 C.3       1 <0>        -0.0726
     22 N3          0.9436   -3.9736    2.1891 N.3       1 <0>        -0.5241
     23 C16         2.3160   -3.5459    1.8812 C.3       1 <0>         0.0189
     24 C17         3.1661   -4.7756    1.5511 C.3       1 <0>         0.0649
     25 O2          3.1177   -5.6910    2.6489 O.3       1 <0>        -0.3864
     26 C18         1.7959   -6.1288    2.9756 C.3       1 <0>         0.0649
     27 C19         0.9319   -4.9128    3.3201 C.3       1 <0>         0.0099
     28 H2          1.1465    2.1349    0.5207 H         1 <0>         0.0686
     29 H3         -0.4160    2.2691   -0.3213 H         1 <0>         0.0667
     30 H4         -0.3725    2.0507    1.4447 H         1 <0>         0.0672
     31 H5          0.0380    0.4069   -1.8151 H         1 <0>         0.1197
     32 H6         -0.0099   -2.0363   -2.1160 H         1 <0>         0.1214
     33 H7          0.0086   -3.5195   -0.1503 H         1 <0>         0.1298
     34 H8          0.1323   -0.1158    2.4166 H         1 <0>         0.1190
     35 H9         -1.7475   -3.7900    1.8591 H         1 <0>         0.0752
     36 H10        -1.3274   -4.0044    3.5755 H         1 <0>         0.0732
     37 H11        -1.8234   -1.2542    3.0571 H         1 <0>         0.3958
     38 H12        -3.8925   -0.6352    4.6689 H         1 <0>         0.1008
     39 H13        -4.4082   -0.4967    2.9709 H         1 <0>         0.0958
     40 H14        -5.4310   -0.9706    7.1190 H         1 <0>         0.0637
     41 H15        -5.6716   -2.7176    7.3602 H         1 <0>         0.0664
     42 H16        -4.3006   -2.1341    6.3865 H         1 <0>         0.0583
     43 H17         2.3036   -2.8715    1.0250 H         1 <0>         0.0906
     44 H18         2.7392   -3.0318    2.7442 H         1 <0>         0.0428
     45 H19         2.7745   -5.2594    0.6563 H         1 <0>         0.0603
     46 H20         4.1977   -4.4692    1.3781 H         1 <0>         0.0969
     47 H21         1.3644   -6.6519    2.1222 H         1 <0>         0.0620
     48 H22         1.8366   -6.8010    3.8327 H         1 <0>         0.0998
     49 H23         1.3330   -4.4205    4.2060 H         1 <0>         0.0462
     50 H24        -0.0907   -5.2362    3.5141 H         1 <0>         0.0956
@<TRIPOS>BOND
     1    1    2 1
     2    1   28 1
     3    1   29 1
     4    1   30 1
     5    2    7 ar
     6    2    3 ar
     7    3    4 ar
     8    3   31 1
     9    4    5 ar
    10    4   32 1
    11    5    6 ar
    12    5   33 1
    13    6    7 ar
    14    6    8 1
    15    7   34 1
    16    8    9 1
    17    8   10 1
    18    8   22 1
    19   10   11 1
    20   10   35 1
    21   10   36 1
    22   11   12 am
    23   11   37 1
    24   12   13 2
    25   12   14 1
    26   14   15 1
    27   14   38 1
    28   14   39 1
    29   15   20 1
    30   15   16 2
    31   16   17 1
    32   16   21 1
    33   17   18 2
    34   18   19 1
    35   18   20 1
    36   21   40 1
    37   21   41 1
    38   21   42 1
    39   22   27 1
    40   22   23 1
    41   23   24 1
    42   23   43 1
    43   23   44 1
    44   24   25 1
    45   24   45 1
    46   24   46 1
    47   25   26 1
    48   26   27 1
    49   26   47 1
    50   26   48 1
    51   27   49 1
    52   27   50 1
@<TRIPOS>MOLECULE
ZINC55567339
   33    34     0     0     0
SMALL
USER_CHARGES

@<TRIPOS>ATOM
      1 C1         -0.0178    1.4608    0.0101 C.3       1 <0>         0.0924
      2 N1          0.0021   -0.0041    0.0020 N.am      1 <0>        -0.7445
      3 C2          0.5851   -0.6645   -1.0180 C.2       1 <0>         0.5716
      4 O1          1.0946   -0.0445   -1.9315 O.2       1 <0>        -0.5639
      5 C3          0.6051   -2.1396   -1.0261 C.ar      1 <0>        -0.2609
      6 C4          0.0147   -2.8538    0.0206 C.ar      1 <0>        -0.0407
      7 C5          0.0346   -4.2297    0.0099 C.ar      1 <0>        -0.1899
      8 C6          0.6422   -4.9104   -1.0416 C.ar      1 <0>         0.3139
      9 C7          1.2315   -4.2020   -2.0852 C.ar      1 <0>        -0.2781
     10 C8          1.2094   -2.8261   -2.0833 C.ar      1 <0>         0.0044
     11 N2          0.6611   -6.3007   -1.0492 N.2       1 <0>        -1.0663
     12 S1          1.3834   -7.1121   -2.2991 S.o2      1 <0>         2.5965
     13 O2          0.6093   -6.8422   -3.4598 O.2       1 <0>        -1.0215
     14 O3          2.7720   -6.8197   -2.2245 O.2       1 <0>        -1.0005
     15 C9          1.2131   -8.8346   -1.9695 C.ar      1 <0>        -0.6112
     16 C10         0.4548   -9.6273   -2.8109 C.ar      1 <0>         0.0025
     17 C11         0.3208  -10.9784   -2.5538 C.ar      1 <0>        -0.1656
     18 C12         0.9463  -11.5390   -1.4527 C.ar      1 <0>         0.1408
     19 C13         1.7055  -10.7451   -0.6104 C.ar      1 <0>        -0.1547
     20 C14         1.8427   -9.3940   -0.8723 C.ar      1 <0>         0.0296
     21 Br1         2.8855   -8.3099    0.2737 Br        1 <0>         0.0045
     22 F1          0.8153  -12.8597   -1.2006 F         1 <0>        -0.1318
     23 H1          1.0048    1.8381    0.0023 H         1 <0>         0.0540
     24 H2         -0.5450    1.8219   -0.8730 H         1 <0>         0.0540
     25 H3         -0.5280    1.8123    0.9069 H         1 <0>         0.0683
     26 H4         -0.4044   -0.4986    0.7308 H         1 <0>         0.3990
     27 H5         -0.4562   -2.3263    0.8369 H         1 <0>         0.1070
     28 H6         -0.4214   -4.7821    0.8182 H         1 <0>         0.1188
     29 H7          1.7024   -4.7329   -2.8993 H         1 <0>         0.1028
     30 H8          1.6625   -2.2771   -2.8956 H         1 <0>         0.1156
     31 H9         -0.0334   -9.1903   -3.6695 H         1 <0>         0.1577
     32 H10        -0.2720  -11.5970   -3.2113 H         1 <0>         0.1469
     33 H11         2.1934  -11.1812    0.2487 H         1 <0>         0.1493
@<TRIPOS>BOND
     1    1    2 1
     2    1   23 1
     3    1   24 1
     4    1   25 1
     5    2    3 am
     6    2   26 1
     7    3    4 2
     8    3    5 1
     9    5   10 ar
    10    5    6 ar
    11    6    7 ar
    12    6   27 1
    13    7    8 ar
    14    7   28 1
    15    8    9 ar
    16    8   11 1
    17    9   10 ar
    18    9   29 1
    19   10   30 1
    20   11   12 1
    21   12   13 2
    22   12   14 2
    23   12   15 1
    24   15   20 ar
    25   15   16 ar
    26   16   17 ar
    27   16   31 1
    28   17   18 ar
    29   17   32 1
    30   18   19 ar
    31   18   22 1
    32   19   20 ar
    33   19   33 1
    34   20   21 1
@<TRIPOS>MOLECULE
ZINC58406689
   37    39     0     0     0
SMALL
USER_CHARGES

@<TRIPOS>ATOM
      1 C1         -0.0184    1.5028    0.0103 C.3       1 <0>        -0.0724
      2 C2          0.0021   -0.0041    0.0020 C.2       1 <0>        -0.0149
      3 C3         -1.0813   -0.7995    0.0027 C.2       1 <0>        -0.1924
      4 C4         -0.5738   -2.1757   -0.0080 C.2       1 <0>        -0.1207
      5 C5          0.7795   -2.0704   -0.0142 C.2       1 <0>         0.0301
      6 O1          1.1045   -0.7683   -0.0131 O.3       1 <0>        -0.1813
      7 C6          1.7525   -3.2212   -0.0251 C.3       1 <0>        -0.0717
      8 C7         -1.3750   -3.4259   -0.0110 C.2       1 <0>         0.1612
      9 C8         -2.7413   -3.4030   -0.0094 C.2       1 <0>        -0.2842
     10 S1         -3.1039   -5.1510   -0.0144 S.3       1 <0>         0.2312
     11 C9         -1.5208   -5.7210   -0.0181 C.2       1 <0>         0.2591
     12 N1         -0.8007   -4.6219   -0.0211 N.2       1 <0>        -0.5589
     13 N2         -1.0802   -7.0389   -0.0220 N.am      1 <0>        -0.6177
     14 C10        -1.9736   -8.0480   -0.0239 C.2       1 <0>         0.5062
     15 O2         -3.1620   -7.8059   -0.0221 O.2       1 <0>        -0.4732
     16 C11        -1.4959   -9.4773   -0.0282 C.3       1 <0>        -0.0110
     17 C12        -2.6841  -10.4041   -0.0295 C.2       1 <0>        -0.2866
     18 C13        -3.3628  -10.9369   -1.0739 C.2       1 <0>         0.1213
     19 N3         -4.3803  -11.7296   -0.7879 N.2       1 <0>        -0.5755
     20 C14        -4.7125  -11.9846    0.4605 C.2       1 <0>         0.2807
     21 S2         -6.0201  -13.0025    1.0596 S.3       1 <0>        -0.7419
     22 S3         -3.5800  -11.1084    1.3448 S.3       1 <0>         0.0111
     23 C15        -2.9746  -10.6382   -2.4991 C.3       1 <0>        -0.0761
     24 H1          1.0042    1.8801    0.0026 H         1 <0>         0.0749
     25 H2         -0.5455    1.8639   -0.8728 H         1 <0>         0.0846
     26 H3         -0.5286    1.8543    0.9071 H         1 <0>         0.0847
     27 H4         -2.1155   -0.4885    0.0102 H         1 <0>         0.1521
     28 H5          1.9820   -3.4931   -1.0553 H         1 <0>         0.0787
     29 H6          2.6692   -2.9267    0.4858 H         1 <0>         0.0679
     30 H7          1.3100   -4.0760    0.4864 H         1 <0>         0.1085
     31 H8         -3.4160   -2.5596   -0.0059 H         1 <0>         0.1905
     32 H9         -0.1298   -7.2325   -0.0235 H         1 <0>         0.4228
     33 H10        -0.8942   -9.6566   -0.9193 H         1 <0>         0.1121
     34 H11        -0.8925   -9.6614    0.8607 H         1 <0>         0.1072
     35 H12        -2.2487  -11.3763   -2.8403 H         1 <0>         0.0666
     36 H13        -3.8602  -10.6794   -3.1332 H         1 <0>         0.0685
     37 H14        -2.5341   -9.6427   -2.5546 H         1 <0>         0.0586
@<TRIPOS>BOND
     1    1    2 1
     2    1   24 1
     3    1   25 1
     4    1   26 1
     5    2    6 1
     6    2    3 2
     7    3    4 1
     8    3   27 1
     9    4    5 2
    10    4    8 1
    11    5    6 1
    12    5    7 1
    13    7   28 1
    14    7   29 1
    15    7   30 1
    16    8   12 1
    17    8    9 2
    18    9   10 1
    19    9   31 1
    20   10   11 1
    21   11   12 2
    22   11   13 1
    23   13   14 am
    24   13   32 1
    25   14   15 2
    26   14   16 1
    27   16   17 1
    28   16   33 1
    29   16   34 1
    30   17   22 1
    31   17   18 2
    32   18   19 1
    33   18   23 1
    34   19   20 2
    35   20   21 1
    36   20   22 1
    37   23   35 1
    38   23   36 1
    39   23   37 1
@<TRIPOS>MOLECULE
ZINC67163671
   46    48     0     0     0
SMALL
USER_CHARGES

@<TRIPOS>ATOM
      1 C1         -0.0187    1.5258    0.0104 C.3       1 <0>        -0.1524
      2 C2          0.0021   -0.0041    0.0020 C.3       1 <0>         0.1908
      3 H1          0.5123   -0.3556   -0.8948 H         1 <0>         0.0907
      4 C3          0.7309   -0.5033    1.2229 C.ar      1 <0>        -0.0612
      5 C4          0.0797   -0.5582    2.4418 C.ar      1 <0>        -0.2229
      6 C5          0.7449   -1.0151    3.5646 C.ar      1 <0>        -0.0661
      7 C6          2.0625   -1.4189    3.4721 C.ar      1 <0>        -0.2550
      8 C7          2.7194   -1.3655    2.2494 C.ar      1 <0>         0.2864
      9 C8          2.0465   -0.9107    1.1222 C.ar      1 <0>        -0.1717
     10 N1          4.0518   -1.7729    2.1523 N.2       1 <0>        -1.0991
     11 S1          4.8502   -2.3205    3.4958 S.o2      1 <0>         2.5256
     12 O1          4.8990   -1.2013    4.3700 O.2       1 <0>        -1.0311
     13 O2          4.1586   -3.5036    3.8716 O.2       1 <0>        -1.0313
     14 C9          6.5181   -2.7305    2.9121 C.3       1 <0>        -0.6372
     15 N2         -1.3723   -0.5112    0.0124 N.am      1 <0>        -0.7121
     16 C10        -2.0508   -0.6427   -1.1446 C.2       1 <0>         0.5340
     17 O3         -1.5236   -0.3413   -2.1944 O.2       1 <0>        -0.5263
     18 C11        -3.4646   -1.1643   -1.1339 C.3       1 <0>        -0.1784
     19 H2         -4.0647   -0.8785   -0.2700 H         1 <0>         0.1272
     20 C12        -3.7119   -2.5475   -1.7394 C.3       1 <0>        -0.1452
     21 C13        -4.1805   -1.2926   -2.4800 C.3       1 <0>        -0.0871
     22 H3         -5.2516   -1.0915   -2.5016 H         1 <0>         0.1221
     23 C14        -3.4179   -0.8876   -3.7151 C.ar      1 <0>        -0.0165
     24 C15        -2.2407   -1.5343   -4.0435 C.ar      1 <0>        -0.0591
     25 C16        -1.5402   -1.1639   -5.1760 C.ar      1 <0>        -0.0972
     26 C17        -2.0155   -0.1461   -5.9813 C.ar      1 <0>        -0.1529
     27 C18        -3.1940    0.5022   -5.6535 C.ar      1 <0>         0.0829
     28 C19        -3.8982    0.1261   -4.5220 C.ar      1 <0>        -0.1466
     29 F1         -3.6593    1.4974   -6.4397 F         1 <0>        -0.1476
     30 H4          1.0039    1.9031    0.0027 H         1 <0>         0.0675
     31 H5         -0.5459    1.8868   -0.8726 H         1 <0>         0.0551
     32 H6         -0.5289    1.8773    0.9072 H         1 <0>         0.0559
     33 H7         -0.9506   -0.2431    2.5169 H         1 <0>         0.0970
     34 H8          0.2336   -1.0561    4.5150 H         1 <0>         0.1006
     35 H9          2.5816   -1.7754    4.3495 H         1 <0>         0.1005
     36 H10         2.5530   -0.8717    0.1692 H         1 <0>         0.1110
     37 H11         6.9883   -1.8379    2.4995 H         1 <0>         0.1150
     38 H12         7.1136   -3.1025    3.7459 H         1 <0>         0.1008
     39 H13         6.4546   -3.4976    2.1403 H         1 <0>         0.1149
     40 H14        -1.7940   -0.7522    0.8520 H         1 <0>         0.4004
     41 H15        -2.8520   -3.0802   -2.1454 H         1 <0>         0.1059
     42 H16        -4.4749   -3.1715   -1.2740 H         1 <0>         0.1104
     43 H17        -1.8682   -2.3292   -3.4145 H         1 <0>         0.1204
     44 H18        -0.6208   -1.6698   -5.4315 H         1 <0>         0.1269
     45 H19        -1.4676    0.1436   -6.8658 H         1 <0>         0.1275
     46 H20        -4.8200    0.6281   -4.2677 H         1 <0>         0.1272
@<TRIPOS>BOND
     1    1    2 1
     2    1   30 1
     3    1   31 1
     4    1   32 1
     5    2    3 1
     6    2    4 1
     7    2   15 1
     8    4    9 ar
     9    4    5 ar
    10    5    6 ar
    11    5   33 1
    12    6    7 ar
    13    6   34 1
    14    7    8 ar
    15    7   35 1
    16    8    9 ar
    17    8   10 1
    18    9   36 1
    19   10   11 1
    20   11   12 2
    21   11   13 2
    22   11   14 1
    23   14   37 1
    24   14   38 1
    25   14   39 1
    26   15   16 am
    27   15   40 1
    28   16   17 2
    29   16   18 1
    30   18   19 1
    31   18   21 1
    32   18   20 1
    33   20   21 1
    34   20   41 1
    35   20   42 1
    36   21   22 1
    37   21   23 1
    38   23   28 ar
    39   23   24 ar
    40   24   25 ar
    41   24   43 1
    42   25   26 ar
    43   25   44 1
    44   26   27 ar
    45   26   45 1
    46   27   28 ar
    47   27   29 1
    48   28   46 1
@<TRIPOS>MOLECULE
ZINC05669469
   38    40     0     0     0
SMALL
USER_CHARGES
2-[4-(3-benzofuran-2-ylprop-2-enoyl)-3-hydroxy-phenoxy]acetic acid
@<TRIPOS>ATOM
      1 C1         12.6599    1.1210   -0.1122 C.ar      1 <0>        -0.1371
      2 C2         11.8524   -0.0083   -0.1111 C.ar      1 <0>        -0.0883
      3 C3         10.4787    0.1074   -0.0980 C.ar      1 <0>        -0.1083
      4 C4          9.8902    1.3660   -0.0858 C.ar      1 <0>         0.0639
      5 C5         10.7136    2.5082   -0.0869 C.ar      1 <0>        -0.1374
      6 C6         12.1044    2.3692   -0.1007 C.ar      1 <0>        -0.0670
      7 C7          9.8052    3.6527   -0.0778 C.2       1 <0>        -0.1626
      8 C8          8.5444    3.1330   -0.0632 C.2       1 <0>         0.0498
      9 O1          8.6092    1.7852   -0.0715 O.3       1 <0>        -0.1860
     10 C9          7.3478    3.8932   -0.0476 C.2       1 <0>        -0.0133
     11 C10         6.1458    3.2654   -0.0395 C.2       1 <0>        -0.1976
     12 C11         4.9498    4.0252   -0.0240 C.2       1 <0>         0.4270
     13 O2          5.0014    5.2426   -0.0180 O.2       1 <0>        -0.4535
     14 C12         3.6429    3.3426   -0.0152 C.ar      1 <0>        -0.2512
     15 C13         3.5804    1.9455   -0.0217 C.ar      1 <0>        -0.0158
     16 C14         2.3593    1.3124   -0.0077 C.ar      1 <0>        -0.2377
     17 C15         1.1835    2.0573    0.0018 C.ar      1 <0>         0.1937
     18 C16         1.2340    3.4435    0.0088 C.ar      1 <0>        -0.2051
     19 C17         2.4567    4.0922    0.0001 C.ar      1 <0>         0.2080
     20 O3          2.5082    5.4480    0.0069 O.3       1 <0>        -0.4790
     21 O4         -0.0173    1.4248    0.0099 O.3       1 <0>        -0.2776
     22 C18         0.0021   -0.0041    0.0020 C.3       1 <0>         0.0136
     23 C19        -1.4117   -0.5257    0.0127 C.2       1 <0>         0.4690
     24 O5         -2.3406    0.2469    0.0257 O.co2     1 <0>        -0.6119
     25 H1         13.7344    1.0122   -0.1225 H         1 <0>         0.1307
     26 H2         12.3055   -0.9885   -0.1202 H         1 <0>         0.1368
     27 H3          9.8611   -0.7786   -0.0969 H         1 <0>         0.1353
     28 H4         12.7370    3.2445   -0.1016 H         1 <0>         0.1293
     29 H5         10.0770    4.6979   -0.0799 H         1 <0>         0.1660
     30 H6          7.3935    4.9722   -0.0423 H         1 <0>         0.1635
     31 H7          6.1001    2.1864   -0.0449 H         1 <0>         0.1375
     32 H8          4.4904    1.3640   -0.0331 H         1 <0>         0.1347
     33 H9          2.3126    0.2334   -0.0082 H         1 <0>         0.1396
     34 H10         0.3188    4.0169    0.0206 H         1 <0>         0.1437
     35 H11         2.5319    5.8363    0.8922 H         1 <0>         0.3950
     36 H12         0.5123   -0.3556   -0.8948 H         1 <0>         0.0722
     37 H13         0.5293   -0.3651    0.8851 H         1 <0>         0.0721
     38 O6         -1.6391   -1.8486    0.0078 O.co2     1 <0>        -0.7518
@<TRIPOS>BOND
     1    1    6 ar
     2    1    2 ar
     3    1   25 1
     4    2    3 ar
     5    2   26 1
     6    3    4 ar
     7    3   27 1
     8    4    9 1
     9    4    5 ar
    10    5    6 ar
    11    5    7 1
    12    6   28 1
    13    7    8 2
    14    7   29 1
    15    8    9 1
    16    8   10 1
    17   10   11 2
    18   10   30 1
    19   11   12 1
    20   11   31 1
    21   12   13 2
    22   12   14 1
    23   14   19 ar
    24   14   15 ar
    25   15   16 ar
    26   15   32 1
    27   16   17 ar
    28   16   33 1
    29   17   18 ar
    30   17   21 1
    31   18   19 ar
    32   18   34 1
    33   19   20 1
    34   20   35 1
    35   21   22 1
    36   22   23 1
    37   22   36 1
    38   22   37 1
    39   23   24 2
    40   23   38 1
@<TRIPOS>MOLECULE
ZINC28225613
   45    47     0     0     0
SMALL
USER_CHARGES
(1S,2S)-2-[(5-cyclohexyl-1,3,4-thiadiazol-2-yl)carbamoyl]cyclohexane-1-carboxylic acid
@<TRIPOS>ATOM
      1 C1         -8.4080   -2.2348    0.0290 C.3       1 <0>        -0.1238
      2 C2         -8.0902   -1.4062   -1.2173 C.3       1 <0>        -0.1171
      3 C3         -6.6043   -1.0414   -1.2219 C.3       1 <0>        -0.1118
      4 C4         -6.2754   -0.2260    0.0302 C.3       1 <0>         0.0216
      5 C5         -6.5932   -1.0546    1.2765 C.3       1 <0>        -0.1105
      6 C6         -8.0791   -1.4193    1.2812 C.3       1 <0>        -0.1170
      7 C7         -4.8119    0.1333    0.0256 C.2       1 <0>         0.0326
      8 N1         -3.7492   -0.6464    0.0163 N.2       1 <0>        -0.2326
      9 N2         -2.5880   -0.1515    0.0077 N.2       1 <0>        -0.3013
     10 C8         -2.3855    1.1549    0.0196 C.2       1 <0>         0.3046
     11 S1         -4.0236    1.7393    0.0306 S.3       1 <0>        -0.0310
     12 N3         -1.1906    1.8666    0.0178 N.am      1 <0>        -0.6314
     13 C9         -0.0144    1.2086    0.0087 C.2       1 <0>         0.5206
     14 O1          0.0021   -0.0041    0.0020 O.2       1 <0>        -0.4329
     15 C10         1.2803    1.9798    0.0005 C.3       1 <0>        -0.0709
     16 H1          1.3073    2.6124   -0.8990 H         1 <0>         0.1018
     17 C11         1.3614    2.8537    1.2537 C.3       1 <0>        -0.1132
     18 C12         2.6758    3.6367    1.2454 C.3       1 <0>        -0.1145
     19 C13         3.8521    2.6584    1.2289 C.3       1 <0>        -0.1217
     20 C14         3.7710    1.7845   -0.0244 C.3       1 <0>        -0.0966
     21 C15         2.4566    1.0015   -0.0160 C.3       1 <0>        -0.1131
     22 H2          2.4145    0.3509    0.8700 H         1 <0>         0.0761
     23 C16         2.3768    0.1407   -1.2504 C.2       1 <0>         0.4757
     24 O2          1.4719    0.2940   -2.0363 O.co2     1 <0>        -0.6360
     25 O3          3.3109   -0.7962   -1.4768 O.co2     1 <0>        -0.7730
     26 H3         -7.8047   -3.1545    0.0215 H         1 <0>         0.0658
     27 H4         -9.4763   -2.4971    0.0323 H         1 <0>         0.0619
     28 H5         -8.3266   -1.9925   -2.1175 H         1 <0>         0.0667
     29 H6         -8.6936   -0.4865   -1.2098 H         1 <0>         0.0631
     30 H7         -6.0010   -1.9612   -1.2294 H         1 <0>         0.0778
     31 H8         -6.3758   -0.4457   -2.1179 H         1 <0>         0.0667
     32 H9         -6.8656    0.7022    0.0377 H         1 <0>         0.0934
     33 H10        -5.9899   -1.9744    1.2689 H         1 <0>         0.0773
     34 H11        -6.3567   -0.4684    2.1767 H         1 <0>         0.0657
     35 H12        -8.6824   -0.4995    1.2887 H         1 <0>         0.0631
     36 H13        -8.3076   -2.0150    2.1773 H         1 <0>         0.0662
     37 H14        -1.2055    2.9665    0.0238 H         1 <0>         0.4455
     38 H15         0.5157    3.5570    1.2656 H         1 <0>         0.0601
     39 H16         1.3203    2.2158    2.1489 H         1 <0>         0.0672
     40 H17         2.7169    4.2747    0.3502 H         1 <0>         0.0639
     41 H18         2.7340    4.2650    2.1464 H         1 <0>         0.0609
     42 H19         4.7971    3.2214    1.2229 H         1 <0>         0.0591
     43 H20         3.8110    2.0204    2.1241 H         1 <0>         0.0604
     44 H21         3.8120    2.4225   -0.9195 H         1 <0>         0.0561
     45 H22         4.6167    1.0812   -0.0364 H         1 <0>         0.0743
@<TRIPOS>BOND
     1    1    6 1
     2    1    2 1
     3    1   26 1
     4    1   27 1
     5    2    3 1
     6    2   28 1
     7    2   29 1
     8    3    4 1
     9    3   30 1
    10    3   31 1
    11    4    5 1
    12    4    7 1
    13    4   32 1
    14    5    6 1
    15    5   33 1
    16    5   34 1
    17    6   35 1
    18    6   36 1
    19    7   11 1
    20    7    8 2
    21    8    9 1
    22    9   10 2
    23   10   11 1
    24   10   12 1
    25   12   13 am
    26   12   37 1
    27   13   14 2
    28   13   15 1
    29   15   16 1
    30   15   21 1
    31   15   17 1
    32   17   18 1
    33   17   38 1
    34   17   39 1
    35   18   19 1
    36   18   40 1
    37   18   41 1
    38   19   20 1
    39   19   42 1
    40   19   43 1
    41   20   21 1
    42   20   44 1
    43   20   45 1
    44   21   22 1
    45   21   23 1
    46   23   24 2
    47   23   25 1
@<TRIPOS>MOLECULE
ZINC41233269
   42    44     0     0     0
SMALL
USER_CHARGES

@<TRIPOS>ATOM
      1 C1         -0.0414    1.5024    0.0137 C.3       1 <0>        -0.1134
      2 C2         -0.0148   -0.0043    0.0045 C.ar      1 <0>        -0.1059
      3 C3         -0.7519   -0.7018   -0.9353 C.ar      1 <0>        -0.0969
      4 C4         -0.7297   -2.0824   -0.9463 C.ar      1 <0>        -0.1223
      5 C5          0.0343   -2.7707   -0.0127 C.ar      1 <0>         0.1479
      6 C6          0.7735   -2.0676    0.9292 C.ar      1 <0>        -0.1454
      7 C7          0.7508   -0.6864    0.9319 C.ar      1 <0>        -0.0694
      8 C8          1.5573    0.0776    1.9502 C.3       1 <0>        -0.1150
      9 N1          0.0586   -4.1697   -0.0209 N.am      1 <0>        -0.6778
     10 C9         -0.0404   -4.8386   -1.1868 C.2       1 <0>         0.5145
     11 O1         -0.0541   -4.2300   -2.2358 O.2       1 <0>        -0.5167
     12 C10        -0.1340   -6.3427   -1.1871 C.3       1 <0>        -0.1297
     13 C11        -0.2363   -6.8471   -2.6279 C.3       1 <0>        -0.1487
     14 C12        -0.3299   -8.3512   -2.6281 C.2       1 <0>         0.4109
     15 O2         -0.3161   -8.9599   -1.5789 O.2       1 <0>        -0.4806
     16 C13        -0.4376   -9.0794   -3.8975 C.ar      1 <0>        -0.2357
     17 C14        -0.4477   -8.3745   -5.1117 C.ar      1 <0>        -0.0575
     18 C15        -0.5473   -9.0421   -6.2943 C.ar      1 <0>        -0.1399
     19 C16        -0.6410  -10.4385   -6.3058 C.ar      1 <0>         0.1389
     20 C17        -0.6317  -11.1529   -5.0943 C.ar      1 <0>        -0.0656
     21 C18        -0.5245  -10.4758   -3.8969 C.ar      1 <0>        -0.0028
     22 O3         -0.7349  -12.4615   -5.4233 O.3       1 <0>        -0.2711
     23 C19        -0.8041  -12.5514   -6.7615 C.2       1 <0>         0.5211
     24 O4         -0.9137  -13.7058   -7.4543 O.3       1 <0>        -0.6334
     25 N2         -0.7495  -11.3590   -7.2971 N.2       1 <0>        -0.6066
     26 H1          0.7511    1.8837   -0.6304 H         1 <0>         0.0684
     27 H2         -1.0069    1.8510   -0.3530 H         1 <0>         0.0649
     28 H3          0.1125    1.8623    1.0310 H         1 <0>         0.0666
     29 H4         -1.3458   -0.1660   -1.6610 H         1 <0>         0.1249
     30 H5         -1.3060   -2.6265   -1.6800 H         1 <0>         0.1350
     31 H6          1.3685   -2.5999    1.6565 H         1 <0>         0.1243
     32 H7          0.9529    0.2438    2.8419 H         1 <0>         0.0703
     33 H8          2.4455   -0.4961    2.2149 H         1 <0>         0.0655
     34 H9          1.8569    1.0378    1.5301 H         1 <0>         0.0693
     35 H10         0.1466   -4.6582    0.8125 H         1 <0>         0.4119
     36 H11         0.7558   -6.7622   -0.7176 H         1 <0>         0.1029
     37 H12        -1.0186   -6.6518   -0.6303 H         1 <0>         0.1041
     38 H13        -1.1260   -6.4276   -3.0974 H         1 <0>         0.1062
     39 H14         0.6484   -6.5380   -3.1847 H         1 <0>         0.1063
     40 H15        -0.3763   -7.2968   -5.1076 H         1 <0>         0.1281
     41 H16        -0.5545   -8.4933   -7.2245 H         1 <0>         0.1253
     42 H17        -0.5121  -11.0203   -2.9643 H         1 <0>         0.1272
@<TRIPOS>BOND
     1    1    2 1
     2    1   26 1
     3    1   27 1
     4    1   28 1
     5    2    7 ar
     6    2    3 ar
     7    3    4 ar
     8    3   29 1
     9    4    5 ar
    10    4   30 1
    11    5    6 ar
    12    5    9 1
    13    6    7 ar
    14    6   31 1
    15    7    8 1
    16    8   32 1
    17    8   33 1
    18    8   34 1
    19    9   10 am
    20    9   35 1
    21   10   11 2
    22   10   12 1
    23   12   13 1
    24   12   36 1
    25   12   37 1
    26   13   14 1
    27   13   38 1
    28   13   39 1
    29   14   15 2
    30   14   16 1
    31   16   21 ar
    32   16   17 ar
    33   17   18 ar
    34   17   40 1
    35   18   19 ar
    36   18   41 1
    37   19   25 1
    38   19   20 ar
    39   20   21 ar
    40   20   22 1
    41   21   42 1
    42   22   23 1
    43   23   24 1
    44   23   25 2
@<TRIPOS>MOLECULE
ZINC17207122
   44    47     0     0     0
SMALL
USER_CHARGES

@<TRIPOS>ATOM
      1 C1         -0.0157    1.3058    0.0092 C.2       1 <0>        -0.1902
      2 C2          0.0021   -0.0041    0.0020 C.2       1 <0>        -0.1480
      3 C3          1.3172   -0.7397   -0.0145 C.3       1 <0>         0.1375
      4 N1          1.3674   -1.6756    1.1115 N.am      1 <0>        -0.5660
      5 C4          1.8618   -1.2602    2.2971 C.2       1 <0>         0.5473
      6 O1          2.2658   -0.1212    2.4451 O.2       1 <0>        -0.4993
      7 C5          1.8963   -2.2278    3.4044 C.2       1 <0>        -0.2725
      8 C6          2.3898   -1.8809    4.6589 C.2       1 <0>         0.0766
      9 C7          2.8696   -0.5818    4.8898 C.2       1 <0>        -0.1474
     10 C8          3.8345    0.1686    4.0622 C.ar      1 <0>        -0.0205
     11 C9          4.5281   -0.1249    2.8909 C.ar      1 <0>        -0.0312
     12 C10         5.3814    0.8123    2.3494 C.ar      1 <0>        -0.1484
     13 C11         5.5503    2.0426    2.9669 C.ar      1 <0>        -0.1035
     14 C12         4.8699    2.3456    4.1265 C.ar      1 <0>        -0.1329
     15 C13         4.0035    1.4129    4.6886 C.ar      1 <0>         0.0866
     16 N2          3.2072    1.4372    5.8176 N.pl3     1 <0>        -0.5777
     17 H1          3.1401    2.1865    6.4299 H         1 <0>         0.4129
     18 C14         2.5255    0.2669    5.9481 C.2       1 <0>         0.1520
     19 C15         1.5796   -0.0562    7.0314 C.ar      1 <0>        -0.0388
     20 C16         0.3563   -0.6658    6.7372 C.ar      1 <0>        -0.0830
     21 C17        -0.5235   -0.9650    7.7560 C.ar      1 <0>        -0.1134
     22 C18        -0.1981   -0.6633    9.0670 C.ar      1 <0>        -0.1110
     23 C19         1.0108   -0.0594    9.3660 C.ar      1 <0>        -0.1214
     24 C20         1.9036    0.2402    8.3587 C.ar      1 <0>        -0.1054
     25 C21         1.3835   -3.5828    3.1248 C.2       1 <0>         0.5398
     26 N3          0.9216   -3.8487    1.8916 N.2       1 <0>        -0.6762
     27 C22         0.9107   -2.9437    0.9454 C.2       1 <0>         0.6363
     28 O2          0.4249   -3.2917   -0.2623 O.3       1 <0>        -0.6615
     29 O3          1.3794   -4.4407    3.9921 O.2       1 <0>        -0.5495
     30 H2          0.9122    1.8585    0.0033 H         1 <0>         0.0951
     31 H3         -0.9582    1.8330    0.0166 H         1 <0>         0.0922
     32 H4         -0.9258   -0.5567    0.0079 H         1 <0>         0.1086
     33 H5          1.4134   -1.2911   -0.9498 H         1 <0>         0.0994
     34 H6          2.1349   -0.0241    0.0711 H         1 <0>         0.0816
     35 H7          2.4036   -2.6111    5.4545 H         1 <0>         0.1413
     36 H8          4.3982   -1.0827    2.4091 H         1 <0>         0.1099
     37 H9          5.9207    0.5877    1.4410 H         1 <0>         0.1179
     38 H10         6.2218    2.7700    2.5351 H         1 <0>         0.1197
     39 H11         5.0094    3.3067    4.5990 H         1 <0>         0.1137
     40 H12         0.1009   -0.9015    5.7146 H         1 <0>         0.1299
     41 H13        -1.4690   -1.4356    7.5303 H         1 <0>         0.1293
     42 H14        -0.8913   -0.9000    9.8606 H         1 <0>         0.1242
     43 H15         1.2576    0.1734   10.3913 H         1 <0>         0.1246
     44 H16         2.8486    0.7071    8.5940 H         1 <0>         0.1217
@<TRIPOS>BOND
     1    1    2 2
     2    1   30 1
     3    1   31 1
     4    2    3 1
     5    2   32 1
     6    3    4 1
     7    3   33 1
     8    3   34 1
     9    4   27 1
    10    4    5 am
    11    5    6 2
    12    5    7 1
    13    7    8 2
    14    7   25 1
    15    8    9 1
    16    8   35 1
    17    9   18 2
    18    9   10 1
    19   10   15 ar
    20   10   11 ar
    21   11   12 ar
    22   11   36 1
    23   12   13 ar
    24   12   37 1
    25   13   14 ar
    26   13   38 1
    27   14   15 ar
    28   14   39 1
    29   15   16 1
    30   16   17 1
    31   16   18 1
    32   18   19 1
    33   19   24 ar
    34   19   20 ar
    35   20   21 ar
    36   20   40 1
    37   21   22 ar
    38   21   41 1
    39   22   23 ar
    40   22   42 1
    41   23   24 ar
    42   23   43 1
    43   24   44 1
    44   25   26 1
    45   25   29 2
    46   26   27 2
    47   27   28 1
@<TRIPOS>MOLECULE
ZINC03905778
   51    53     0     0     0
SMALL
USER_CHARGES

@<TRIPOS>ATOM
      1 C1         -0.0187    1.5258    0.0104 C.3       1 <0>        -0.1475
      2 C2          0.0021   -0.0041    0.0020 C.3       1 <0>         0.0526
      3 O1          0.6932   -0.4774    1.1597 O.3       1 <0>        -0.3141
      4 C3          0.8021   -1.8251    1.3058 C.ar      1 <0>         0.0964
      5 C4          0.2606   -2.6728    0.3527 C.ar      1 <0>        -0.1537
      6 C5          0.3725   -4.0425    0.5024 C.ar      1 <0>         0.0094
      7 C6          1.0237   -4.5699    1.6021 C.ar      1 <0>        -0.1287
      8 C7          1.5657   -3.7298    2.5569 C.ar      1 <0>        -0.1164
      9 C8          1.4624   -2.3558    2.4097 C.ar      1 <0>         0.0440
     10 O2          2.0003   -1.5279    3.3449 O.3       1 <0>        -0.4910
     11 C9         -0.2169   -4.9629   -0.5351 C.3       1 <0>         0.1252
     12 H1         -0.6848   -4.3660   -1.3180 H         1 <0>         0.0402
     13 C10        -1.2620   -5.8346    0.1136 C.2       1 <0>        -0.3936
     14 C11        -1.1537   -7.2048    0.1022 C.2       1 <0>         0.2512
     15 C12        -2.2160   -8.0637    0.7490 C.3       1 <0>        -0.0767
     16 C13        -2.8366   -7.3111    1.9273 C.3       1 <0>        -0.1075
     17 C14        -3.4297   -5.9976    1.4078 C.3       1 <0>        -0.1631
     18 C15        -2.3469   -5.2046    0.7298 C.2       1 <0>         0.3937
     19 O3         -2.4160   -3.9902    0.7181 O.2       1 <0>        -0.5217
     20 N1         -0.1223   -7.8186   -0.4728 N.2       1 <0>        -0.6425
     21 C16         0.8567   -7.1738   -1.0677 C.2       1 <0>         0.2998
     22 C17         0.8785   -5.7918   -1.1367 C.2       1 <0>        -0.3843
     23 C18         1.9292   -5.1646   -1.7731 C.2       1 <0>         0.4684
     24 O4          2.9202   -5.8965   -2.3181 O.3       1 <0>        -0.6482
     25 O5          1.9644   -3.8200   -1.8495 O.3       1 <0>        -0.3282
     26 C19         3.0822   -3.2376   -2.5230 C.3       1 <0>         0.0673
     27 C20         2.9485   -1.7135   -2.5088 C.3       1 <0>        -0.1497
     28 C21         1.9829   -7.9589   -1.6892 C.3       1 <0>        -0.0851
     29 H2          1.0039    1.9031    0.0027 H         1 <0>         0.0628
     30 H3         -0.5459    1.8868   -0.8726 H         1 <0>         0.0735
     31 H4         -0.5289    1.8773    0.9072 H         1 <0>         0.0623
     32 H5         -1.0205   -0.3814    0.0098 H         1 <0>         0.0608
     33 H6          0.5123   -0.3556   -0.8948 H         1 <0>         0.0595
     34 H7         -0.2492   -2.2634   -0.5069 H         1 <0>         0.1207
     35 H8          1.1087   -5.6405    1.7157 H         1 <0>         0.1151
     36 H9          2.0735   -4.1443    3.4152 H         1 <0>         0.1220
     37 H10         1.3952   -1.3013    4.0643 H         1 <0>         0.3728
     38 H11        -2.9905   -8.2953    0.0177 H         1 <0>         0.0774
     39 H12        -1.7661   -8.9900    1.1063 H         1 <0>         0.0797
     40 H13        -3.6246   -7.9170    2.3747 H         1 <0>         0.0665
     41 H14        -2.0686   -7.0974    2.6707 H         1 <0>         0.0653
     42 H15        -4.2244   -6.2135    0.6937 H         1 <0>         0.0828
     43 H16        -3.8335   -5.4244    2.2424 H         1 <0>         0.0763
     44 H17         4.0027   -3.5263   -2.0157 H         1 <0>         0.0570
     45 H18         3.1094   -3.5904   -3.5539 H         1 <0>         0.0566
     46 H19         2.0280   -1.4248   -3.0161 H         1 <0>         0.0596
     47 H20         2.9213   -1.3607   -1.4779 H         1 <0>         0.0620
     48 H21         3.8011   -1.2693   -3.0225 H         1 <0>         0.0695
     49 H22         1.8068   -9.0246   -1.5430 H         1 <0>         0.0423
     50 H23         2.0317   -7.7417   -2.7562 H         1 <0>         0.0796
     51 H24         2.9248   -7.6783   -1.2178 H         1 <0>         0.0799
@<TRIPOS>BOND
     1    1    2 1
     2    1   29 1
     3    1   30 1
     4    1   31 1
     5    2    3 1
     6    2   32 1
     7    2   33 1
     8    3    4 1
     9    4    9 ar
    10    4    5 ar
    11    5    6 ar
    12    5   34 1
    13    6    7 ar
    14    6   11 1
    15    7    8 ar
    16    7   35 1
    17    8    9 ar
    18    8   36 1
    19    9   10 1
    20   10   37 1
    21   11   12 1
    22   11   22 1
    23   11   13 1
    24   13   18 1
    25   13   14 2
    26   14   15 1
    27   14   20 1
    28   15   16 1
    29   15   38 1
    30   15   39 1
    31   16   17 1
    32   16   40 1
    33   16   41 1
    34   17   18 1
    35   17   42 1
    36   17   43 1
    37   18   19 2
    38   20   21 2
    39   21   22 1
    40   21   28 1
    41   22   23 2
    42   23   24 1
    43   23   25 1
    44   25   26 1
    45   26   27 1
    46   26   44 1
    47   26   45 1
    48   27   46 1
    49   27   47 1
    50   27   48 1
    51   28   49 1
    52   28   50 1
    53   28   51 1
@<TRIPOS>MOLECULE
ZINC03253415
   51    53     0     0     0
SMALL
USER_CHARGES
1-[(5-bromo-2-methoxy-phenyl)methyleneamino]-3-(4-morpholinosulfonylphenyl)-thiourea
@<TRIPOS>ATOM
      1 C1         -4.3187   -2.3691   -2.4441 C.3       1 <0>         0.0156
      2 O1         -3.3022   -1.8137   -1.6073 O.3       1 <0>        -0.2883
      3 C2         -2.0951   -2.4366   -1.6070 C.ar      1 <0>         0.1849
      4 C3         -1.8930   -3.5614   -2.3898 C.ar      1 <0>        -0.2086
      5 C4         -0.6664   -4.1982   -2.3848 C.ar      1 <0>        -0.0238
      6 C5          0.3686   -3.7185   -1.5991 C.ar      1 <0>        -0.1349
      7 C6          0.1840   -2.5992   -0.8135 C.ar      1 <0>        -0.0139
      8 C7         -1.0512   -1.9472   -0.8104 C.ar      1 <0>        -0.0971
      9 C8         -1.2554   -0.7509    0.0259 C.2       1 <0>         0.1574
     10 N1         -2.4047   -0.1475    0.0258 N.2       1 <0>        -0.2649
     11 N2         -2.5988    0.9897    0.8207 N.pl3     1 <0>        -0.5325
     12 C9         -3.7921    1.6162    0.8206 C.2       1 <0>         0.5876
     13 S1         -4.0294    3.0059    1.7920 S.2       1 <0>        -0.5839
     14 N3         -4.7986    1.1487    0.0559 N.pl3     1 <0>        -0.6186
     15 C10        -6.0623    1.7445    0.1224 C.ar      1 <0>         0.1784
     16 C11        -7.2014    0.9536    0.2000 C.ar      1 <0>        -0.1409
     17 C12        -8.4473    1.5451    0.2718 C.ar      1 <0>        -0.0146
     18 C13        -8.5622    2.9230    0.2541 C.ar      1 <0>        -0.6744
     19 C14        -7.4305    3.7133    0.1713 C.ar      1 <0>        -0.0124
     20 C15        -6.1812    3.1281    0.1054 C.ar      1 <0>        -0.0920
     21 S2        -10.1542    3.6735    0.3380 S.o2      1 <0>         2.6906
     22 O2        -11.0160    2.7296    0.9591 O.2       1 <0>        -0.9505
     23 O3         -9.9593    4.9827    0.8551 O.2       1 <0>        -0.9474
     24 N4        -10.6928    3.8544   -1.2175 N.pl3     1 <0>        -1.0011
     25 C16       -10.4092    5.0808   -1.9795 C.3       1 <0>         0.0849
     26 C17        -9.8205    4.6742   -3.3400 C.3       1 <0>         0.0467
     27 O4        -10.6911    3.7270   -3.9634 O.3       1 <0>        -0.3751
     28 C18       -10.8384    2.5028   -3.2399 C.3       1 <0>         0.0471
     29 C19       -11.4744    2.7959   -1.8763 C.3       1 <0>         0.0853
     30 Br1         2.0413   -4.6005   -1.6036 Br        1 <0>        -0.0355
     31 H1         -3.9826   -2.3569   -3.4809 H         1 <0>         0.0624
     32 H2         -4.5192   -3.3962   -2.1392 H         1 <0>         0.0626
     33 H3         -5.2296   -1.7778   -2.3505 H         1 <0>         0.1034
     34 H4         -2.6954   -3.9415   -3.0047 H         1 <0>         0.1448
     35 H5         -0.5140   -5.0749   -2.9969 H         1 <0>         0.1423
     36 H6          0.9933   -2.2277   -0.2025 H         1 <0>         0.1492
     37 H7         -0.4489   -0.3763    0.6387 H         1 <0>         0.1347
     38 H8         -1.8744    1.3262    1.3711 H         1 <0>         0.4193
     39 H9         -4.6467    0.3991   -0.5407 H         1 <0>         0.4247
     40 H10        -7.1126   -0.1228    0.2089 H         1 <0>         0.1356
     41 H11        -9.3332    0.9307    0.3369 H         1 <0>         0.1450
     42 H12        -7.5236    4.7892    0.1584 H         1 <0>         0.1459
     43 H13        -5.2976    3.7459    0.0410 H         1 <0>         0.1584
     44 H14       -11.3317    5.6420   -2.1285 H         1 <0>         0.0867
     45 H15        -9.6903    5.6932   -1.4353 H         1 <0>         0.1014
     46 H16        -8.8380    4.2251   -3.1948 H         1 <0>         0.0573
     47 H17        -9.7277    5.5559   -3.9741 H         1 <0>         0.1083
     48 H18        -9.8595    2.0459   -3.0944 H         1 <0>         0.0560
     49 H19       -11.4782    1.8220   -3.8013 H         1 <0>         0.1077
     50 H20       -11.4612    1.8944   -1.2637 H         1 <0>         0.0998
     51 H21       -12.5025    3.1307   -2.0145 H         1 <0>         0.0862
@<TRIPOS>BOND
     1    1    2 1
     2    1   31 1
     3    1   32 1
     4    1   33 1
     5    2    3 1
     6    3    8 ar
     7    3    4 ar
     8    4    5 ar
     9    4   34 1
    10    5    6 ar
    11    5   35 1
    12    6    7 ar
    13    6   30 1
    14    7    8 ar
    15    7   36 1
    16    8    9 1
    17    9   10 2
    18    9   37 1
    19   10   11 1
    20   11   12 1
    21   11   38 1
    22   12   13 2
    23   12   14 1
    24   14   15 1
    25   14   39 1
    26   15   20 ar
    27   15   16 ar
    28   16   17 ar
    29   16   40 1
    30   17   18 ar
    31   17   41 1
    32   18   19 ar
    33   18   21 1
    34   19   20 ar
    35   19   42 1
    36   20   43 1
    37   21   22 2
    38   21   23 2
    39   21   24 1
    40   24   29 1
    41   24   25 1
    42   25   26 1
    43   25   44 1
    44   25   45 1
    45   26   27 1
    46   26   46 1
    47   26   47 1
    48   27   28 1
    49   28   29 1
    50   28   48 1
    51   28   49 1
    52   29   50 1
    53   29   51 1
@<TRIPOS>MOLECULE
ZINC12426319
   53    56     0     0     0
SMALL
USER_CHARGES
[(1R)-2-(1,3-benzodioxol-5-ylmethylamino)-1-methyl-2-oxo-ethyl] 2-[(2S)-3-oxo-6-(trifluoromethyl)-4H-1,4-benzothiazin-2-yl]acetate
@<TRIPOS>ATOM
      1 C1          5.6327    5.6070   -5.1176 C.3       1 <0>        -0.1671
      2 C2          4.8946    4.3395   -4.6821 C.3       1 <0>         0.0715
      3 H1          5.4456    3.8575   -3.8746 H         1 <0>         0.1154
      4 C3          4.7867    3.3943   -5.8509 C.2       1 <0>         0.5186
      5 O1          3.6985    3.1207   -6.3111 O.2       1 <0>        -0.5117
      6 N1          5.8996    2.8530   -6.3847 N.am      1 <0>        -0.7224
      7 C4          5.7948    1.9342   -7.5209 C.3       1 <0>         0.1681
      8 C5          7.1722    1.4747   -7.9241 C.ar      1 <0>        -0.1049
      9 C6          7.8876    2.1864   -8.8692 C.ar      1 <0>        -0.0864
     10 C7          9.1533    1.7714   -9.2390 C.ar      1 <0>        -0.1017
     11 C8          9.7041    0.6346   -8.6700 C.ar      1 <0>         0.0433
     12 C9          8.9813   -0.0853   -7.7220 C.ar      1 <0>         0.0309
     13 C10         7.7154    0.3393   -7.3525 C.ar      1 <0>        -0.0804
     14 O2          9.7322   -1.1513   -7.3181 O.3       1 <0>        -0.3068
     15 C11        11.0800   -0.8480   -7.7240 C.3       1 <0>         0.2127
     16 O3         10.9079    0.0196   -8.8601 O.3       1 <0>        -0.3070
     17 O4          3.5639    4.6896   -4.2184 O.3       1 <0>        -0.3238
     18 C12         3.4281    4.9719   -2.9132 C.2       1 <0>         0.4718
     19 O5          4.3893    4.9281   -2.1824 O.2       1 <0>        -0.4862
     20 C13         2.0768    5.3437   -2.3593 C.3       1 <0>        -0.1058
     21 C14         2.1978    5.6144   -0.8583 C.3       1 <0>        -0.0918
     22 H2          2.9540    6.3791   -0.6806 H         1 <0>         0.1666
     23 C15         0.8702    6.0803   -0.3191 C.2       1 <0>         0.5321
     24 O6          0.6932    7.2711   -0.1714 O.2       1 <0>        -0.4943
     25 N2         -0.1161    5.2497    0.0030 N.am      1 <0>        -0.6509
     26 C16        -0.0605    3.8592    0.0134 C.ar      1 <0>         0.1580
     27 C17        -1.2473    3.1326    0.0262 C.ar      1 <0>        -0.0888
     28 C18        -1.2188    1.7523    0.0173 C.ar      1 <0>        -0.1462
     29 C19        -0.0126    1.0758    0.0080 C.ar      1 <0>        -0.0770
     30 C20         1.1747    1.7847    0.0004 C.ar      1 <0>        -0.0555
     31 C21         1.1515    3.1696    0.0042 C.ar      1 <0>        -0.1189
     32 S1          2.6636    4.0818    0.0039 S.3       1 <0>        -0.0263
     33 C22        -2.5112    0.9772    0.0232 C.3       1 <0>         0.5100
     34 F1         -2.2328   -0.3938    0.0177 F         1 <0>        -0.1723
     35 F2         -3.2432    1.2998    1.1710 F         1 <0>        -0.1730
     36 F3         -3.2574    1.3061   -1.1135 F         1 <0>        -0.1727
     37 H3          6.6316    5.3442   -5.4658 H         1 <0>         0.0836
     38 H4          5.0816    6.0890   -5.9251 H         1 <0>         0.0761
     39 H5          5.7107    6.2906   -4.2723 H         1 <0>         0.0780
     40 H6          6.7700    3.0718   -6.0166 H         1 <0>         0.4045
     41 H7          5.1928    1.0713   -7.2360 H         1 <0>         0.0834
     42 H8          5.3224    2.4457   -8.3595 H         1 <0>         0.0863
     43 H9          7.4581    3.0704   -9.3168 H         1 <0>         0.1423
     44 H10         9.7116    2.3316   -9.9745 H         1 <0>         0.1401
     45 H11         7.1527   -0.2168   -6.6172 H         1 <0>         0.1387
     46 H12        11.6136   -0.3323   -6.9256 H         1 <0>         0.0876
     47 H13        11.6068   -1.7574   -8.0129 H         1 <0>         0.1349
     48 H14         1.3780    4.5239   -2.5254 H         1 <0>         0.1169
     49 H15         1.7121    6.2395   -2.8618 H         1 <0>         0.1307
     50 H16        -0.9607    5.6539    0.2563 H         1 <0>         0.4196
     51 H17        -2.1948    3.6508    0.0386 H         1 <0>         0.1466
     52 H18         0.0021   -0.0041    0.0020 H         1 <0>         0.1521
     53 H19         2.1183    1.2595   -0.0081 H         1 <0>         0.1515
@<TRIPOS>BOND
     1    1    2 1
     2    1   37 1
     3    1   38 1
     4    1   39 1
     5    2    3 1
     6    2    4 1
     7    2   17 1
     8    4    5 2
     9    4    6 am
    10    6    7 1
    11    6   40 1
    12    7    8 1
    13    7   41 1
    14    7   42 1
    15    8   13 ar
    16    8    9 ar
    17    9   10 ar
    18    9   43 1
    19   10   11 ar
    20   10   44 1
    21   11   16 1
    22   11   12 ar
    23   12   13 ar
    24   12   14 1
    25   13   45 1
    26   14   15 1
    27   15   16 1
    28   15   46 1
    29   15   47 1
    30   17   18 1
    31   18   19 2
    32   18   20 1
    33   20   21 1
    34   20   48 1
    35   20   49 1
    36   21   22 1
    37   21   32 1
    38   21   23 1
    39   23   24 2
    40   23   25 am
    41   25   26 1
    42   25   50 1
    43   26   31 ar
    44   26   27 ar
    45   27   28 ar
    46   27   51 1
    47   28   29 ar
    48   28   33 1
    49   29   30 ar
    50   29   52 1
    51   30   31 ar
    52   30   53 1
    53   31   32 1
    54   33   34 1
    55   33   35 1
    56   33   36 1
@<TRIPOS>MOLECULE
ZINC15133785
   67    72     0     0     0
SMALL
USER_CHARGES
N'-[[dioxo-(p-tolyl)BLAHyl]methyleneamino]-N-propyl-oxamide
@<TRIPOS>ATOM
      1 C1         -1.3556  -11.1181    2.2640 C.3       1 <0>        -0.1502
      2 C2         -1.6117   -9.6401    2.5655 C.3       1 <0>        -0.1382
      3 C3         -1.1717   -8.7921    1.3704 C.3       1 <0>         0.1149
      4 N1         -1.4168   -7.3770    1.6592 N.am      1 <0>        -0.6963
      5 C4         -1.1045   -6.4385    0.7436 C.2       1 <0>         0.5150
      6 O1         -0.6201   -6.7658   -0.3200 O.2       1 <0>        -0.5164
      7 C5         -1.3544   -4.9964    1.0378 C.2       1 <0>         0.5288
      8 O2         -1.8389   -4.6690    2.1018 O.2       1 <0>        -0.4725
      9 N2         -1.0420   -4.0579    0.1223 N.am      1 <0>        -0.5604
     10 N3         -1.2765   -2.7046    0.3984 N.2       1 <0>        -0.1845
     11 C6         -0.9798   -1.8131   -0.4712 C.2       1 <0>         0.0767
     12 C7         -1.2320   -0.3574   -0.1742 C.3       1 <0>         0.1047
     13 C8          0.0031    0.5100   -0.3571 C.ar      1 <0>        -0.0860
     14 C9          1.2403    0.0447   -0.6997 C.ar      1 <0>        -0.0940
     15 C10         2.2835    0.9519   -0.8337 C.ar      1 <0>        -0.1113
     16 C11         2.0696    2.3013   -0.6226 C.ar      1 <0>        -0.1116
     17 C12         0.8085    2.7679   -0.2745 C.ar      1 <0>        -0.0934
     18 C13        -0.2126    1.8707   -0.1446 C.ar      1 <0>        -0.0896
     19 C14        -1.6432    2.2296    0.2237 C.3       1 <0>         0.0127
     20 C15        -2.5075    1.6188   -0.8608 C.ar      1 <0>        -0.0755
     21 C16        -2.2918    0.2585   -1.0735 C.ar      1 <0>        -0.0713
     22 C17        -3.0004   -0.4204   -2.0231 C.ar      1 <0>        -0.0947
     23 C18        -3.9426    0.2690   -2.7756 C.ar      1 <0>        -0.1130
     24 C19        -4.1566    1.6184   -2.5645 C.ar      1 <0>        -0.1113
     25 C20        -3.4322    2.3027   -1.5969 C.ar      1 <0>        -0.0949
     26 C21        -1.9577    1.4122    1.4958 C.3       1 <0>        -0.1121
     27 H1         -2.9739    1.6052    1.8396 H         1 <0>         0.1407
     28 C22        -1.6976   -0.1084    1.2772 C.3       1 <0>        -0.1059
     29 H2         -2.5947   -0.6857    1.5012 H         1 <0>         0.1429
     30 C23        -0.5985   -0.4271    2.2206 C.2       1 <0>         0.5380
     31 O3         -0.0972   -1.5222    2.3586 O.2       1 <0>        -0.4363
     32 N4         -0.2483    0.6771    2.8923 N.am      1 <0>        -0.5252
     33 C24        -0.9475    1.7709    2.5641 C.2       1 <0>         0.5343
     34 O4         -0.7952    2.8729    3.0456 O.2       1 <0>        -0.4634
     35 C25         0.7667    0.6871    3.8594 C.ar      1 <0>         0.1053
     36 C26         0.5988   -0.0051    5.0510 C.ar      1 <0>        -0.0946
     37 C27         1.6027    0.0022    5.9996 C.ar      1 <0>        -0.1102
     38 C28         2.7696    0.7072    5.7680 C.ar      1 <0>        -0.0742
     39 C29         2.9375    1.4019    4.5843 C.ar      1 <0>        -0.1110
     40 C30         1.9392    1.3939    3.6297 C.ar      1 <0>        -0.0917
     41 C31         3.8602    0.7187    6.8079 C.3       1 <0>        -0.1174
     42 H3         -1.6691  -11.7222    3.1154 H         1 <0>         0.0631
     43 H4         -1.9230  -11.4124    1.3811 H         1 <0>         0.0592
     44 H5         -0.2923  -11.2726    2.0807 H         1 <0>         0.0592
     45 H6         -1.0443   -9.3458    3.4484 H         1 <0>         0.0725
     46 H7         -2.6750   -9.4856    2.7488 H         1 <0>         0.0725
     47 H8         -1.7391   -9.0864    0.4875 H         1 <0>         0.0764
     48 H9         -0.1083   -8.9466    1.1872 H         1 <0>         0.0762
     49 H10        -1.8040   -7.1154    2.5092 H         1 <0>         0.4153
     50 H11        -0.6549   -4.3195   -0.7277 H         1 <0>         0.3988
     51 H12        -0.5488   -2.1044   -1.4177 H         1 <0>         0.1271
     52 H13         1.4048   -1.0100   -0.8638 H         1 <0>         0.1247
     53 H14         3.2683    0.6008   -1.1043 H         1 <0>         0.1271
     54 H15         2.8884    2.9974   -0.7294 H         1 <0>         0.1280
     55 H16         0.6386    3.8216   -0.1095 H         1 <0>         0.1322
     56 H17        -1.7973    3.3022    0.3410 H         1 <0>         0.1260
     57 H18        -2.8316   -1.4746   -2.1858 H         1 <0>         0.1245
     58 H19        -4.5119   -0.2526   -3.5307 H         1 <0>         0.1267
     59 H20        -4.8916    2.1440   -3.1561 H         1 <0>         0.1275
     60 H21        -3.5977    3.3568   -1.4295 H         1 <0>         0.1323
     61 H22        -0.3141   -0.5522    5.2343 H         1 <0>         0.1257
     62 H23         1.4746   -0.5397    6.9250 H         1 <0>         0.1309
     63 H24         3.8499    1.9516    4.4061 H         1 <0>         0.1303
     64 H25         2.0706    1.9373    2.7056 H         1 <0>         0.1243
     65 H26         3.7042    1.5556    7.4887 H         1 <0>         0.0746
     66 H27         3.8370   -0.2154    7.3691 H         1 <0>         0.0692
     67 H28         4.8282    0.8244    6.3181 H         1 <0>         0.0690
@<TRIPOS>BOND
     1    1    2 1
     2    1   42 1
     3    1   43 1
     4    1   44 1
     5    2    3 1
     6    2   45 1
     7    2   46 1
     8    3    4 1
     9    3   47 1
    10    3   48 1
    11    4    5 am
    12    4   49 1
    13    5    6 2
    14    5    7 1
    15    7    8 2
    16    7    9 am
    17    9   10 1
    18    9   50 1
    19   10   11 2
    20   11   12 1
    21   11   51 1
    22   12   21 1
    23   12   28 1
    24   12   13 1
    25   13   18 ar
    26   13   14 ar
    27   14   15 ar
    28   14   52 1
    29   15   16 ar
    30   15   53 1
    31   16   17 ar
    32   16   54 1
    33   17   18 ar
    34   17   55 1
    35   18   19 1
    36   19   20 1
    37   19   26 1
    38   19   56 1
    39   20   25 ar
    40   20   21 ar
    41   21   22 ar
    42   22   23 ar
    43   22   57 1
    44   23   24 ar
    45   23   58 1
    46   24   25 ar
    47   24   59 1
    48   25   60 1
    49   26   27 1
    50   26   33 1
    51   26   28 1
    52   28   29 1
    53   28   30 1
    54   30   31 2
    55   30   32 am
    56   32   33 am
    57   32   35 1
    58   33   34 2
    59   35   40 ar
    60   35   36 ar
    61   36   37 ar
    62   36   61 1
    63   37   38 ar
    64   37   62 1
    65   38   39 ar
    66   38   41 1
    67   39   40 ar
    68   39   63 1
    69   40   64 1
    70   41   65 1
    71   41   66 1
    72   41   67 1
@<TRIPOS>MOLECULE
ZINC17215248
   68    72     0     0     0
SMALL
USER_CHARGES
N-[[(3S)-3-(2-hydroxy-4-oxo-chromen-3-yl)-3-phenyl-1-(2-pyrrolidin-1-ylethyl)propylidene]amino]pyridine-4-carboxamide
@<TRIPOS>ATOM
      1 C1         -4.6495   -0.6442    1.6051 C.ar      1 <0>        -0.1409
      2 C2         -3.9853   -0.0537    0.5463 C.ar      1 <0>        -0.1425
      3 C3         -2.9226    0.7974    0.7852 C.ar      1 <0>        -0.0886
      4 C4         -2.5243    1.0583    2.0830 C.ar      1 <0>        -0.0247
      5 C5         -3.1852    0.4638    3.1416 C.ar      1 <0>        -0.1006
      6 C6         -4.2507   -0.3839    2.9028 C.ar      1 <0>        -0.1258
      7 C7         -1.3658    1.9862    2.3435 C.3       1 <0>         0.0780
      8 H1         -1.5313    2.5082    3.2975 H         1 <0>         0.0806
      9 C8         -1.2532    2.9953    1.1989 C.3       1 <0>        -0.0686
     10 C9         -2.4638    3.8928    1.1997 C.2       1 <0>         0.0977
     11 N1         -3.4107    3.6896    2.0368 N.2       1 <0>        -0.1751
     12 N2         -4.5362    4.5240    2.0375 N.am      1 <0>        -0.5981
     13 C10        -5.5331    4.3101    2.9188 C.2       1 <0>         0.5708
     14 O1         -5.4559    3.3933    3.7130 O.2       1 <0>        -0.4657
     15 C11        -6.7228    5.1921    2.9195 C.ar      1 <0>        -0.0776
     16 C12        -6.8291    6.2561    2.0182 C.ar      1 <0>        -0.1528
     17 C13        -7.9582    7.0512    2.0510 C.ar      1 <0>         0.0988
     18 N3         -8.9214    6.8235    2.9217 N.ar      1 <0>        -0.4669
     19 C14        -8.8591    5.8348    3.7912 C.ar      1 <0>         0.1079
     20 C15        -7.7684    4.9877    3.8253 C.ar      1 <0>        -0.1107
     21 C16        -2.5596    5.0296    0.2150 C.3       1 <0>        -0.1492
     22 C17        -3.3210    4.5648   -1.0280 C.3       1 <0>        -0.0108
     23 N4         -3.3296    5.6410   -2.0279 N.4       1 <0>        -0.4083
     24 C18        -1.9462    6.0436   -2.3886 C.3       1 <0>        -0.0089
     25 C19        -2.1270    6.7469   -3.7572 C.3       1 <0>        -0.1420
     26 C20        -3.2238    5.8978   -4.4399 C.3       1 <0>        -0.1411
     27 C21        -3.9594    5.1892   -3.2875 C.3       1 <0>        -0.0019
     28 C22        -0.0920    1.1861    2.4348 C.2       1 <0>        -0.4865
     29 C23         0.6484    1.1647    3.6355 C.2       1 <0>         0.4236
     30 O2          0.2829    1.7900    4.6176 O.2       1 <0>        -0.5456
     31 C24         1.8835    0.3548    3.6565 C.ar      1 <0>        -0.2144
     32 C25         2.6786    0.2735    4.7979 C.ar      1 <0>        -0.0412
     33 C26         3.8231   -0.4938    4.7760 C.ar      1 <0>        -0.1664
     34 C27         4.1825   -1.1811    3.6262 C.ar      1 <0>        -0.0745
     35 C28         3.4034   -1.1085    2.4909 C.ar      1 <0>        -0.1558
     36 C29         2.2460   -0.3400    2.4927 C.ar      1 <0>         0.1610
     37 O3          1.4686   -0.2555    1.3927 O.3       1 <0>        -0.2742
     38 C30         0.3476    0.4761    1.3632 C.2       1 <0>         0.4576
     39 O4         -0.3747    0.5093    0.2234 O.3       1 <0>        -0.6388
     40 H2         -5.4803   -1.3086    1.4184 H         1 <0>         0.1042
     41 H3         -4.2969   -0.2571   -0.4676 H         1 <0>         0.1013
     42 H4         -2.4036    1.2587   -0.0420 H         1 <0>         0.1214
     43 H5         -2.8713    0.6642    4.1553 H         1 <0>         0.1097
     44 H6         -4.7699   -0.8450    3.7300 H         1 <0>         0.1071
     45 H7         -0.3462    3.6029    1.3337 H         1 <0>         0.0834
     46 H8         -1.1956    2.4581    0.2407 H         1 <0>         0.1207
     47 H9         -4.6062    5.3537    1.3187 H         1 <0>         0.3764
     48 H10        -6.0418    6.4512    1.3052 H         1 <0>         0.1275
     49 H11        -8.0511    7.8733    1.3568 H         1 <0>         0.1618
     50 H12        -9.6716    5.6851    4.4867 H         1 <0>         0.1692
     51 H13        -7.7237    4.1801    4.5409 H         1 <0>         0.1539
     52 H14        -3.0938    5.8721    0.6785 H         1 <0>         0.0889
     53 H15        -1.5480    5.3510   -0.0735 H         1 <0>         0.1155
     54 H16        -2.8275    3.6766   -1.4495 H         1 <0>         0.1426
     55 H17        -4.3555    4.3129   -0.7515 H         1 <0>         0.1282
     56 H18        -1.5482    6.7195   -1.6174 H         1 <0>         0.1336
     57 H19        -1.3097    5.1490   -2.4560 H         1 <0>         0.1364
     58 H20        -2.4380    7.7895   -3.5954 H         1 <0>         0.0956
     59 H21        -1.1744    6.7296   -4.3071 H         1 <0>         0.1146
     60 H22        -3.8984    6.5569   -5.0061 H         1 <0>         0.1035
     61 H23        -2.7554    5.1763   -5.1255 H         1 <0>         0.1045
     62 H24        -3.8594    4.0974   -3.3764 H         1 <0>         0.1314
     63 H25        -5.0254    5.4606   -3.2824 H         1 <0>         0.1299
     64 H26         2.3998    0.8085    5.6937 H         1 <0>         0.1322
     65 H27         4.4426   -0.5604    5.6581 H         1 <0>         0.1247
     66 H28         5.0816   -1.7794    3.6201 H         1 <0>         0.1291
     67 H29         3.6929   -1.6479    1.6012 H         1 <0>         0.1325
     68 H30        -3.8907    6.4695   -1.5711 H         1 <0>         0.4426
@<TRIPOS>BOND
     1    1    6 ar
     2    1    2 ar
     3    1   40 1
     4    2    3 ar
     5    2   41 1
     6    3    4 ar
     7    3   42 1
     8    4    5 ar
     9    4    7 1
    10    5    6 ar
    11    5   43 1
    12    6   44 1
    13    7    8 1
    14    7    9 1
    15    7   28 1
    16    9   10 1
    17    9   45 1
    18    9   46 1
    19   10   11 2
    20   10   21 1
    21   11   12 1
    22   12   13 am
    23   12   47 1
    24   13   14 2
    25   13   15 1
    26   15   20 ar
    27   15   16 ar
    28   16   17 ar
    29   16   48 1
    30   17   18 ar
    31   17   49 1
    32   18   19 ar
    33   19   20 ar
    34   19   50 1
    35   20   51 1
    36   21   22 1
    37   21   52 1
    38   21   53 1
    39   22   23 1
    40   22   54 1
    41   22   55 1
    42   23   27 1
    43   23   24 1
    44   23   68 1
    45   24   25 1
    46   24   56 1
    47   24   57 1
    48   25   26 1
    49   25   58 1
    50   25   59 1
    51   26   27 1
    52   26   60 1
    53   26   61 1
    54   27   62 1
    55   27   63 1
    56   28   38 2
    57   28   29 1
    58   29   30 2
    59   29   31 1
    60   31   36 ar
    61   31   32 ar
    62   32   33 ar
    63   32   64 1
    64   33   34 ar
    65   33   65 1
    66   34   35 ar
    67   34   66 1
    68   35   36 ar
    69   35   67 1
    70   36   37 1
    71   37   38 1
    72   38   39 1
@<TRIPOS>MOLECULE
ZINC39615763
   54    58     0     0     0
SMALL
USER_CHARGES

@<TRIPOS>ATOM
      1 C1         -0.0184    1.5028    0.0103 C.3       1 <0>        -0.1165
      2 C2          0.0021   -0.0041    0.0020 C.2       1 <0>         0.0745
      3 C3          0.0054   -0.6532   -1.1620 C.2       1 <0>        -0.1899
      4 S1          0.0318   -2.3579   -0.6302 S.3       1 <0>         0.1484
      5 C4          0.0361   -2.0538    1.1235 C.2       1 <0>         0.3334
      6 N1          0.0227   -0.6863    1.1948 N.am      1 <0>        -0.4751
      7 C5          0.0267   -0.1416    2.4480 C.2       1 <0>         0.5296
      8 O1          0.0107    1.0713    2.5873 O.2       1 <0>        -0.5106
      9 C6          0.0487   -0.9730    3.5681 C.2       1 <0>        -0.2799
     10 C7          0.0663   -2.3417    3.4042 C.2       1 <0>         0.2076
     11 N2          0.0522   -2.8403    2.1707 N.2       1 <0>        -0.4822
     12 C8          0.0907   -3.2571    4.6011 C.3       1 <0>         0.1221
     13 O2         -1.1195   -4.0158    4.6453 O.3       1 <0>        -0.3401
     14 C9         -1.2569   -4.8854    5.6585 C.2       1 <0>         0.4489
     15 O3         -0.3788   -4.9987    6.4807 O.2       1 <0>        -0.4688
     16 C10        -2.5064   -5.7203    5.7706 C.3       1 <0>         0.1764
     17 H1         -3.3737   -5.1130    5.5117 H         1 <0>         0.1282
     18 C11        -2.4126   -6.9099    4.8129 C.3       1 <0>        -0.0565
     19 C12        -3.7104   -7.6756    4.8343 C.2       1 <0>        -0.1686
     20 C13        -3.9900   -8.7521    5.5859 C.2       1 <0>         0.0681
     21 N3         -5.2670   -9.1760    5.3369 N.pl3     1 <0>        -0.5938
     22 H2         -5.6942   -9.9368    5.7608 H         1 <0>         0.4164
     23 C14        -5.8552   -8.3620    4.3950 C.ar      1 <0>         0.0961
     24 C15        -4.9081   -7.3825    4.0435 C.ar      1 <0>        -0.0998
     25 C16        -5.2334   -6.4057    3.1008 C.ar      1 <0>        -0.0718
     26 C17        -6.4732   -6.4037    2.5260 C.ar      1 <0>        -0.1443
     27 C18        -7.4123   -7.3652    2.8723 C.ar      1 <0>        -0.0981
     28 C19        -7.1092   -8.3440    3.7936 C.ar      1 <0>        -0.1302
     29 N4         -2.6453   -6.2094    7.1446 N.am      1 <0>        -0.7132
     30 C20        -1.6850   -6.9864    7.6836 C.2       1 <0>         0.6126
     31 O4         -0.7025   -7.2818    7.0290 O.2       1 <0>        -0.4948
     32 C21        -1.8240   -7.4757    9.0584 C.2       1 <0>        -0.2531
     33 C22        -0.9597   -8.2720    9.7942 C.2       1 <0>        -0.0667
     34 C23        -1.3652   -8.5699   11.0731 C.2       1 <0>        -0.1834
     35 C24        -2.5485   -8.0811   11.5200 C.2       1 <0>        -0.2215
     36 S2         -3.1446   -7.1957   10.2227 S.3       1 <0>         0.1995
     37 H3          1.0042    1.8801    0.0026 H         1 <0>         0.0857
     38 H4         -0.5455    1.8639   -0.8728 H         1 <0>         0.0860
     39 H5         -0.5286    1.8543    0.9071 H         1 <0>         0.1046
     40 H6         -0.0054   -0.2528   -2.1650 H         1 <0>         0.2219
     41 H7          0.0524   -0.5458    4.5601 H         1 <0>         0.1687
     42 H8          0.9414   -3.9342    4.5234 H         1 <0>         0.0993
     43 H9          0.1808   -2.6635    5.5108 H         1 <0>         0.0978
     44 H10        -2.2204   -6.5486    3.8026 H         1 <0>         0.0937
     45 H11        -1.5992   -7.5647    5.1255 H         1 <0>         0.1013
     46 H12        -3.3080   -9.2152    6.2836 H         1 <0>         0.1644
     47 H13        -4.5079   -5.6540    2.8269 H         1 <0>         0.1227
     48 H14        -6.7244   -5.6478    1.7968 H         1 <0>         0.1219
     49 H15        -8.3883   -7.3501    2.4100 H         1 <0>         0.1243
     50 H16        -7.8472   -9.0871    4.0574 H         1 <0>         0.1187
     51 H17        -3.4284   -5.9740    7.6664 H         1 <0>         0.4074
     52 H18        -0.0272   -8.6352    9.3881 H         1 <0>         0.1503
     53 H19        -0.7502   -9.1851   11.7131 H         1 <0>         0.1392
     54 H20        -3.0016   -8.2242   12.4898 H         1 <0>         0.1891
@<TRIPOS>BOND
     1    1    2 1
     2    1   37 1
     3    1   38 1
     4    1   39 1
     5    2    6 1
     6    2    3 2
     7    3    4 1
     8    3   40 1
     9    4    5 1
    10    5   11 2
    11    5    6 1
    12    6    7 am
    13    7    8 2
    14    7    9 1
    15    9   10 2
    16    9   41 1
    17   10   11 1
    18   10   12 1
    19   12   13 1
    20   12   42 1
    21   12   43 1
    22   13   14 1
    23   14   15 2
    24   14   16 1
    25   16   17 1
    26   16   18 1
    27   16   29 1
    28   18   19 1
    29   18   44 1
    30   18   45 1
    31   19   24 1
    32   19   20 2
    33   20   21 1
    34   20   46 1
    35   21   22 1
    36   21   23 1
    37   23   28 ar
    38   23   24 ar
    39   24   25 ar
    40   25   26 ar
    41   25   47 1
    42   26   27 ar
    43   26   48 1
    44   27   28 ar
    45   27   49 1
    46   28   50 1
    47   29   30 am
    48   29   51 1
    49   30   31 2
    50   30   32 1
    51   32   36 1
    52   32   33 2
    53   33   34 1
    54   33   52 1
    55   34   35 2
    56   34   53 1
    57   35   36 1
    58   35   54 1
@<TRIPOS>MOLECULE
ZINC03832938
   62    64     0     0     0
SMALL
USER_CHARGES
1-(4-ethoxyphenyl)-5-[(5-hydroxy-1,3,3-trimethyl-cyclohexyl)methylaminomethylene]hexahydropyrimidine-2,4,6-trione
@<TRIPOS>ATOM
      1 C1          6.9026   -0.4220  -10.3449 C.3       1 <0>        -0.1537
      2 C2          6.0871   -1.1287   -9.2603 C.3       1 <0>         0.0519
      3 O1          6.9731   -1.7236   -8.3099 O.3       1 <0>        -0.3114
      4 C3          6.4054   -2.3958   -7.2734 C.ar      1 <0>         0.1505
      5 C4          7.2075   -2.9973   -6.3146 C.ar      1 <0>        -0.1417
      6 C5          6.6315   -3.6805   -5.2620 C.ar      1 <0>        -0.0453
      7 C6          5.2494   -3.7654   -5.1632 C.ar      1 <0>         0.0801
      8 C7          4.4472   -3.1678   -6.1258 C.ar      1 <0>        -0.0476
      9 C8          5.0242   -2.4803   -7.1752 C.ar      1 <0>        -0.2000
     10 N1          4.6635   -4.4599   -4.0941 N.am      1 <0>        -0.5131
     11 C9          3.9886   -3.7705   -3.1514 C.2       1 <0>         0.5456
     12 O2          3.8838   -2.5601   -3.2175 O.2       1 <0>        -0.4065
     13 C10         3.3820   -4.5228   -2.0389 C.3       1 <0>        -0.1382
     14 C11         2.6757   -3.8843   -1.0364 C.2       1 <0>         0.1239
     15 N2          2.6221   -2.5377   -1.0023 N.2       1 <0>        -0.4591
     16 C12         1.8737   -1.8611    0.0599 C.3       1 <0>         0.0323
     17 C13         1.9733   -0.3319   -0.1339 C.3       1 <0>        -0.0306
     18 C14         3.4532    0.0431   -0.0762 C.3       1 <0>        -0.0936
     19 C15         3.6131    1.5628   -0.0913 C.3       1 <0>         0.1063
     20 H1          3.1739    1.9842   -0.9910 H         1 <0>         0.0575
     21 C16         2.9449    2.1435    1.1524 C.3       1 <0>        -0.1390
     22 C17         1.4566    1.8139    1.1807 C.3       1 <0>        -0.0514
     23 C18         1.1862    0.3317    0.9848 C.3       1 <0>        -0.1001
     24 C19         0.7089    2.6604    0.1487 C.3       1 <0>        -0.1469
     25 C20         0.9190    2.2105    2.5746 C.3       1 <0>        -0.1471
     26 O3          5.0095    1.8852   -0.0665 O.3       1 <0>        -0.5704
     27 C21         1.3927   -0.0040   -1.5082 C.3       1 <0>        -0.1424
     28 C22         3.5664   -5.9851   -2.0383 C.2       1 <0>         0.5558
     29 O4          3.0992   -6.6734   -1.1505 O.2       1 <0>        -0.4725
     30 N3          4.2618   -6.5404   -3.0522 N.am      1 <0>        -0.6604
     31 C23         4.7871   -5.7932   -4.0332 C.2       1 <0>         0.7063
     32 O5          5.4079   -6.3545   -4.9145 O.2       1 <0>        -0.5017
     33 H2          7.5424   -1.1466  -10.8486 H         1 <0>         0.0676
     34 H3          6.2269    0.0318  -11.0699 H         1 <0>         0.0800
     35 H4          7.5195    0.3524   -9.8890 H         1 <0>         0.0677
     36 H5          5.4702   -1.9031   -9.7162 H         1 <0>         0.0646
     37 H6          5.4473   -0.4041   -8.7567 H         1 <0>         0.0650
     38 H7          8.2828   -2.9316   -6.3917 H         1 <0>         0.1419
     39 H8          7.2560   -4.1485   -4.5154 H         1 <0>         0.1350
     40 H9          3.3720   -3.2370   -6.0516 H         1 <0>         0.1283
     41 H10         4.4001   -2.0116   -7.9217 H         1 <0>         0.1372
     42 H11         2.1670   -4.4643   -0.2807 H         1 <0>         0.1381
     43 H12         2.4511   -4.7912   -2.2865 H         1 <0>         0.1609
     44 H13         2.2925   -2.1326    1.0289 H         1 <0>         0.0740
     45 H14         0.8278   -2.1653    0.0179 H         1 <0>         0.0715
     46 H15         3.8945   -0.3591    0.8374 H         1 <0>         0.0605
     47 H16         3.9692   -0.3838   -0.9385 H         1 <0>         0.0849
     48 H17         3.0764    3.2290    1.1588 H         1 <0>         0.0621
     49 H18         3.4245    1.7314    2.0446 H         1 <0>         0.0688
     50 H19         1.4037   -0.1940    1.9274 H         1 <0>         0.0606
     51 H20         0.1119    0.1912    0.7908 H         1 <0>         0.0629
     52 H21        -0.3486    2.3961    0.1592 H         1 <0>         0.0559
     53 H22         0.8218    3.7164    0.3943 H         1 <0>         0.0544
     54 H23         1.1205    2.4719   -0.8429 H         1 <0>         0.0603
     55 H24         1.4306    1.6277    3.3407 H         1 <0>         0.0539
     56 H25         1.0990    3.2719    2.7449 H         1 <0>         0.0552
     57 H26        -0.1516    2.0114    2.6213 H         1 <0>         0.0551
     58 H27         5.1942    2.8344   -0.0742 H         1 <0>         0.3747
     59 H28         1.5303    1.0569   -1.7171 H         1 <0>         0.0563
     60 H29         1.9045   -0.5934   -2.2690 H         1 <0>         0.0743
     61 H30         0.3289   -0.2415   -1.5193 H         1 <0>         0.0470
     62 H31         4.3886   -7.5019   -3.0691 H         1 <0>         0.4440
@<TRIPOS>BOND
     1    1    2 1
     2    1   33 1
     3    1   34 1
     4    1   35 1
     5    2    3 1
     6    2   36 1
     7    2   37 1
     8    3    4 1
     9    4    9 ar
    10    4    5 ar
    11    5    6 ar
    12    5   38 1
    13    6    7 ar
    14    6   39 1
    15    7    8 ar
    16    7   10 1
    17    8    9 ar
    18    8   40 1
    19    9   41 1
    20   10   31 am
    21   10   11 am
    22   11   12 2
    23   11   13 1
    24   13   28 1
    25   13   43 1
    26   13   14 1
    27   14   42 1
    28   14   15 2
    29   15   16 1
    30   16   17 1
    31   16   44 1
    32   16   45 1
    33   17   23 1
    34   17   18 1
    35   17   27 1
    36   18   19 1
    37   18   46 1
    38   18   47 1
    39   19   20 1
    40   19   21 1
    41   19   26 1
    42   21   22 1
    43   21   48 1
    44   21   49 1
    45   22   23 1
    46   22   24 1
    47   22   25 1
    48   23   50 1
    49   23   51 1
    50   24   52 1
    51   24   53 1
    52   24   54 1
    53   25   55 1
    54   25   56 1
    55   25   57 1
    56   26   58 1
    57   27   59 1
    58   27   60 1
    59   27   61 1
    60   28   29 2
    61   28   30 am
    62   30   31 am
    63   30   62 1
    64   31   32 2
@<TRIPOS>MOLECULE
ZINC09428236
   51    54     0     0     0
SMALL
USER_CHARGES
N-[2-(5,8-dimethoxy-2-oxo-1H-quinolin-3-yl)ethyl]-2-oxo-chromene-3-carboxamide
@<TRIPOS>ATOM
      1 C1         -1.7361   -5.1702    4.6694 C.3       1 <0>         0.0251
      2 O1         -1.6567   -4.3299    3.5164 O.3       1 <0>        -0.3074
      3 C2         -1.5555   -4.9459    2.3102 C.ar      1 <0>         0.1612
      4 C3         -1.5315   -6.3255    2.2338 C.ar      1 <0>        -0.2049
      5 C4         -1.4278   -6.9588    1.0047 C.ar      1 <0>        -0.1153
      6 C5         -1.3463   -6.2242   -0.1639 C.ar      1 <0>         0.0507
      7 C6         -1.3680   -4.8316   -0.1129 C.ar      1 <0>         0.2005
      8 C7         -1.4732   -4.1852    1.1329 C.ar      1 <0>        -0.1275
      9 C8         -1.4951   -2.7241    1.1742 C.2       1 <0>         0.0075
     10 C9         -1.4129   -2.0405    0.0046 C.2       1 <0>        -0.1870
     11 C10        -1.3143   -2.7347   -1.2186 C.2       1 <0>         0.5414
     12 O2         -1.2462   -2.1011   -2.2578 O.2       1 <0>        -0.5308
     13 N1         -1.2883   -4.0782   -1.2672 N.am      1 <0>        -0.6197
     14 H1         -1.2162   -4.5244   -2.1254 H         1 <0>         0.4239
     15 C11        -1.4333   -0.5336    0.0129 C.3       1 <0>        -0.0712
     16 C12         0.0021   -0.0041    0.0020 C.3       1 <0>         0.1262
     17 N2         -0.0178    1.4608    0.0101 N.am      1 <0>        -0.7265
     18 C13         1.1401    2.1505    0.0027 C.2       1 <0>         0.5676
     19 O3          2.2015    1.5568   -0.0106 O.2       1 <0>        -0.5004
     20 C14         1.1201    3.6230    0.0108 C.2       1 <0>        -0.2510
     21 C15        -0.0808    4.3112    0.0202 C.2       1 <0>         0.0406
     22 C16        -0.0532    5.7288    0.0328 C.ar      1 <0>        -0.1699
     23 C17        -1.2519    6.4580    0.0481 C.ar      1 <0>        -0.0449
     24 C18        -1.2177    7.8224    0.0547 C.ar      1 <0>        -0.1454
     25 C19        -0.0040    8.4962    0.0463 C.ar      1 <0>        -0.0482
     26 C20         1.1858    7.8001    0.0312 C.ar      1 <0>        -0.1400
     27 C21         1.1775    6.4094    0.0243 C.ar      1 <0>         0.1630
     28 O4          2.3443    5.7300    0.0100 O.3       1 <0>        -0.2634
     29 C22         2.3728    4.3869    0.0030 C.2       1 <0>         0.5190
     30 O5          3.4400    3.8026   -0.0103 O.2       1 <0>        -0.4135
     31 O6         -1.2445   -6.8602   -1.3624 O.3       1 <0>        -0.3199
     32 C23        -1.2281   -8.2889   -1.3393 C.3       1 <0>         0.0295
     33 H2         -2.6151   -5.8102    4.5928 H         1 <0>         0.0600
     34 H3         -0.8406   -5.7887    4.7307 H         1 <0>         0.0602
     35 H4         -1.8131   -4.5528    5.5644 H         1 <0>         0.1058
     36 H5         -1.5942   -6.9141    3.1371 H         1 <0>         0.1401
     37 H6         -1.4102   -8.0377    0.9596 H         1 <0>         0.1417
     38 H7         -1.5746   -2.1999    2.1151 H         1 <0>         0.1528
     39 H8         -1.9435   -0.1821    0.9097 H         1 <0>         0.0852
     40 H9         -1.9605   -0.1726   -0.8702 H         1 <0>         0.0913
     41 H10         0.5123   -0.3556   -0.8948 H         1 <0>         0.0764
     42 H11         0.5293   -0.3651    0.8851 H         1 <0>         0.0729
     43 H12        -0.8643    1.9343    0.0167 H         1 <0>         0.3969
     44 H13        -1.0204    3.7788    0.0220 H         1 <0>         0.1543
     45 H14        -2.1999    5.9406    0.0544 H         1 <0>         0.1426
     46 H15        -2.1414    8.3819    0.0661 H         1 <0>         0.1388
     47 H16         0.0082    9.5761    0.0520 H         1 <0>         0.1437
     48 H17         2.1242    8.3346    0.0252 H         1 <0>         0.1477
     49 H18        -2.1513   -8.6557   -0.8906 H         1 <0>         0.0578
     50 H19        -1.1436   -8.6678   -2.3579 H         1 <0>         0.1044
     51 H20        -0.3768   -8.6331   -0.7519 H         1 <0>         0.0581
@<TRIPOS>BOND
     1    1    2 1
     2    1   33 1
     3    1   34 1
     4    1   35 1
     5    2    3 1
     6    3    8 ar
     7    3    4 ar
     8    4    5 ar
     9    4   36 1
    10    5    6 ar
    11    5   37 1
    12    6    7 ar
    13    6   31 1
    14    7   13 1
    15    7    8 ar
    16    8    9 1
    17    9   10 2
    18    9   38 1
    19   10   11 1
    20   10   15 1
    21   11   12 2
    22   11   13 am
    23   13   14 1
    24   15   16 1
    25   15   39 1
    26   15   40 1
    27   16   17 1
    28   16   41 1
    29   16   42 1
    30   17   18 am
    31   17   43 1
    32   18   19 2
    33   18   20 1
    34   20   29 1
    35   20   21 2
    36   21   22 1
    37   21   44 1
    38   22   27 ar
    39   22   23 ar
    40   23   24 ar
    41   23   45 1
    42   24   25 ar
    43   24   46 1
    44   25   26 ar
    45   25   47 1
    46   26   27 ar
    47   26   48 1
    48   27   28 1
    49   28   29 1
    50   29   30 2
    51   31   32 1
    52   32   49 1
    53   32   50 1
    54   32   51 1
@<TRIPOS>MOLECULE
ZINC03412513
   39    41     0     0     0
SMALL
USER_CHARGES
2-[[5-(2-bromophenyl)-1,3,4-oxadiazol-2-yl]sulfanyl]-N-(2-furylmethylcarbamoyl)acetamide
@<TRIPOS>ATOM
      1 C1         -2.1129   -3.1067    0.0064 C.ar      1 <0>        -0.1046
      2 C2         -3.3863   -2.5650    0.0218 C.ar      1 <0>        -0.0868
      3 C3         -3.5612   -1.1929    0.0309 C.ar      1 <0>        -0.0919
      4 C4         -2.4644   -0.3542    0.0247 C.ar      1 <0>        -0.0545
      5 C5         -1.1765   -0.8948    0.0092 C.ar      1 <0>        -0.0024
      6 C6         -1.0083   -2.2808   -0.0052 C.ar      1 <0>        -0.0782
      7 C7          0.0021   -0.0041    0.0020 C.2       1 <0>         0.1995
      8 N1         -0.0157    1.3065    0.0092 N.2       1 <0>        -0.2321
      9 N2          1.1917    1.7508    0.0001 N.2       1 <0>        -0.2880
     10 C8          2.0292    0.7396   -0.0133 C.2       1 <0>         0.1200
     11 O1          1.2970   -0.3907   -0.0124 O.3       1 <0>        -0.1956
     12 S1          3.7881    0.8426   -0.0296 S.3       1 <0>         0.1626
     13 C9          3.9977    2.6404   -0.0219 C.3       1 <0>        -0.1677
     14 C10         5.4671    2.9749   -0.0342 C.2       1 <0>         0.5435
     15 O2          6.2911    2.0857   -0.0468 O.2       1 <0>        -0.4471
     16 N3          5.8651    4.2626   -0.0311 N.am      1 <0>        -0.6831
     17 C11         7.1792    4.5617   -0.0420 C.2       1 <0>         0.6990
     18 O3          8.0053    3.6703   -0.0547 O.2       1 <0>        -0.5218
     19 N4          7.5773    5.8493   -0.0389 N.am      1 <0>        -0.7339
     20 C12         9.0057    6.1745   -0.0508 C.3       1 <0>         0.2204
     21 C13         9.1802    7.6713   -0.0444 C.2       1 <0>        -0.0465
     22 C14         9.2818    8.4468    1.0500 C.2       1 <0>        -0.1760
     23 C15         9.4322    9.7775    0.5966 C.2       1 <0>        -0.2189
     24 C16         9.4136    9.7356   -0.7478 C.2       1 <0>        -0.0228
     25 O4          9.2666    8.4566   -1.1305 O.3       1 <0>        -0.1709
     26 Br1        -2.7052    1.5214    0.0365 Br        1 <0>        -0.0006
     27 H1         -1.9838   -4.1790   -0.0006 H         1 <0>         0.1420
     28 H2         -4.2476   -3.2166    0.0263 H         1 <0>         0.1421
     29 H3         -4.5577   -0.7767    0.0425 H         1 <0>         0.1457
     30 H4         -0.0153   -2.7052   -0.0214 H         1 <0>         0.1416
     31 H5          3.5210    3.0656   -0.9051 H         1 <0>         0.1405
     32 H6          3.5379    3.0560    0.8747 H         1 <0>         0.1406
     33 H7          5.2059    4.9740   -0.0209 H         1 <0>         0.4155
     34 H8          6.9180    6.5608   -0.0288 H         1 <0>         0.4036
     35 H9          9.4825    5.7493    0.8324 H         1 <0>         0.1045
     36 H10         9.4655    5.7589   -0.9474 H         1 <0>         0.0904
     37 H11         9.2532    8.1164    2.0778 H         1 <0>         0.1525
     38 H12         9.5408   10.6586    1.2116 H         1 <0>         0.1526
     39 H13         9.5065   10.5856   -1.4075 H         1 <0>         0.2069
@<TRIPOS>BOND
     1    1    6 ar
     2    1    2 ar
     3    1   27 1
     4    2    3 ar
     5    2   28 1
     6    3    4 ar
     7    3   29 1
     8    4    5 ar
     9    4   26 1
    10    5    6 ar
    11    5    7 1
    12    6   30 1
    13    7   11 1
    14    7    8 2
    15    8    9 1
    16    9   10 2
    17   10   11 1
    18   10   12 1
    19   12   13 1
    20   13   14 1
    21   13   31 1
    22   13   32 1
    23   14   15 2
    24   14   16 am
    25   16   17 am
    26   16   33 1
    27   17   18 2
    28   17   19 am
    29   19   20 1
    30   19   34 1
    31   20   21 1
    32   20   35 1
    33   20   36 1
    34   21   25 1
    35   21   22 2
    36   22   23 1
    37   22   37 1
    38   23   24 2
    39   23   38 1
    40   24   25 1
    41   24   39 1
@<TRIPOS>MOLECULE
ZINC32202248
   57    61     0     0     0
SMALL
USER_CHARGES
N'-[2-(1-adamantyl)acetyl]-3-(4-oxo-1,2,3-benzotriazin-3-yl)propanehydrazide
@<TRIPOS>ATOM
      1 C1        -13.7597    4.8429    7.8293 C.ar      1 <0>        -0.0989
      2 C2        -13.6623    4.0190    8.9431 C.ar      1 <0>        -0.0828
      3 C3        -12.9587    2.8374    8.8865 C.ar      1 <0>        -0.0670
      4 C4        -12.3336    2.4591    7.6954 C.ar      1 <0>         0.0567
      5 C5        -12.4350    3.2994    6.5653 C.ar      1 <0>        -0.1507
      6 C6        -13.1519    4.4921    6.6439 C.ar      1 <0>        -0.0520
      7 C7        -11.7636    2.8821    5.3249 C.2       1 <0>         0.5273
      8 O1        -11.8106    3.5661    4.3190 O.2       1 <0>        -0.4979
      9 N1        -11.0946    1.7051    5.3450 N.am      1 <0>        -0.4584
     10 N2        -11.0526    0.9432    6.5157 N.2       1 <0>         0.0848
     11 N3        -11.6318    1.3022    7.6035 N.2       1 <0>        -0.1956
     12 C8        -10.4089    1.2326    4.1397 C.3       1 <0>         0.1379
     13 C9         -8.9735    1.7622    4.1288 C.3       1 <0>        -0.1505
     14 C10        -8.2681    1.2762    2.8890 C.2       1 <0>         0.5257
     15 O2         -8.8556    0.5753    2.0924 O.2       1 <0>        -0.5440
     16 N4         -6.9844    1.6205    2.6653 N.am      1 <0>        -0.5330
     17 N5         -6.3287    1.1686    1.5126 N.am      1 <0>        -0.5367
     18 C11        -5.0450    1.5129    1.2889 C.2       1 <0>         0.5174
     19 O3         -4.4575    2.2138    2.0854 O.2       1 <0>        -0.5331
     20 C12        -4.3396    1.0269    0.0490 C.3       1 <0>        -0.1257
     21 C13        -2.9042    1.5565    0.0381 C.3       1 <0>        -0.0316
     22 C14        -2.1881    1.0631   -1.2207 C.3       1 <0>        -0.1041
     23 C15        -0.7527    1.5927   -1.2315 C.3       1 <0>        -0.0841
     24 C16        -0.0127    1.0858    0.0080 C.3       1 <0>        -0.1103
     25 C17        -0.7288    1.5792    1.2668 C.3       1 <0>        -0.0836
     26 C18        -2.1642    1.0497    1.2777 C.3       1 <0>        -0.1145
     27 C19        -0.7496    3.1091    1.2752 C.3       1 <0>        -0.1063
     28 C20        -1.4896    3.6159    0.0357 C.3       1 <0>        -0.0836
     29 C21        -0.7734    3.1225   -1.2231 C.3       1 <0>        -0.1103
     30 C22        -2.9250    3.0863    0.0466 C.3       1 <0>        -0.1146
     31 H1        -14.3162    5.7663    7.8931 H         1 <0>         0.1435
     32 H2        -14.1441    4.3093    9.8650 H         1 <0>         0.1451
     33 H3        -12.8897    2.2053    9.7594 H         1 <0>         0.1515
     34 H4        -13.2304    5.1369    5.7812 H         1 <0>         0.1474
     35 H5        -10.3940    0.1327    4.1337 H         1 <0>         0.1142
     36 H6        -10.9409    1.5969    3.2485 H         1 <0>         0.1144
     37 H7         -8.9884    2.8621    4.1348 H         1 <0>         0.1056
     38 H8         -8.4415    1.3979    5.0200 H         1 <0>         0.1098
     39 H9         -6.4515    2.2563    3.3877 H         1 <0>         0.4584
     40 H10        -6.8616    0.5328    0.7902 H         1 <0>         0.4570
     41 H11        -4.3247   -0.0730    0.0430 H         1 <0>         0.0992
     42 H12        -4.8716    1.3912   -0.8422 H         1 <0>         0.0990
     43 H13        -2.1732   -0.0368   -1.2268 H         1 <0>         0.0629
     44 H14        -2.7201    1.4275   -2.1119 H         1 <0>         0.0627
     45 H15        -0.2378    1.2380   -2.1365 H         1 <0>         0.0688
     46 H16         0.0022   -0.0141    0.0019 H         1 <0>         0.0601
     47 H17         1.0193    1.4665    0.0002 H         1 <0>         0.0602
     48 H18        -0.1967    1.2147    2.1579 H         1 <0>         0.0663
     49 H19        -2.6791    1.4045    2.1827 H         1 <0>         0.0909
     50 H20        -2.1493   -0.0502    1.2718 H         1 <0>         0.0525
     51 H21        -1.2645    3.4638    2.1802 H         1 <0>         0.0631
     52 H22         0.2824    3.4899    1.2674 H         1 <0>         0.0574
     53 H23        -1.5046    4.7158    0.0417 H         1 <0>         0.0662
     54 H24         0.2586    3.5032   -1.2309 H         1 <0>         0.0602
     55 H25        -1.3053    3.4869   -2.1143 H         1 <0>         0.0600
     56 H26        -3.4571    3.4507   -0.8445 H         1 <0>         0.0523
     57 H27        -3.4399    3.4410    0.9516 H         1 <0>         0.0908
@<TRIPOS>BOND
     1    1    6 ar
     2    1    2 ar
     3    1   31 1
     4    2    3 ar
     5    2   32 1
     6    3    4 ar
     7    3   33 1
     8    4   11 1
     9    4    5 ar
    10    5    6 ar
    11    5    7 1
    12    6   34 1
    13    7    8 2
    14    7    9 am
    15    9   10 1
    16    9   12 1
    17   10   11 2
    18   12   13 1
    19   12   35 1
    20   12   36 1
    21   13   14 1
    22   13   37 1
    23   13   38 1
    24   14   15 2
    25   14   16 am
    26   16   17 1
    27   16   39 1
    28   17   18 am
    29   17   40 1
    30   18   19 2
    31   18   20 1
    32   20   21 1
    33   20   41 1
    34   20   42 1
    35   21   26 1
    36   21   30 1
    37   21   22 1
    38   22   23 1
    39   22   43 1
    40   22   44 1
    41   23   29 1
    42   23   24 1
    43   23   45 1
    44   24   25 1
    45   24   46 1
    46   24   47 1
    47   25   26 1
    48   25   27 1
    49   25   48 1
    50   26   49 1
    51   26   50 1
    52   27   28 1
    53   27   51 1
    54   27   52 1
    55   28   29 1
    56   28   30 1
    57   28   53 1
    58   29   54 1
    59   29   55 1
    60   30   56 1
    61   30   57 1
@<TRIPOS>MOLECULE
ZINC46056135
   55    57     0     0     0
SMALL
USER_CHARGES

@<TRIPOS>ATOM
      1 C1         -2.1318    2.4227    0.4510 C.3       1 <0>        -0.1476
      2 C2         -1.8301    0.9433    0.2030 C.3       1 <0>        -0.1485
      3 C3         -3.0516    0.1034    0.5816 C.3       1 <0>         0.0802
      4 H1         -3.9240    0.4664    0.0383 H         1 <0>         0.1536
      5 C4         -2.8001   -1.3389    0.2209 C.2       1 <0>         0.4974
      6 O1         -3.1549   -1.7679   -0.8568 O.2       1 <0>        -0.4981
      7 N1         -2.1782   -2.1505    1.1018 N.am      1 <0>        -0.6599
      8 C5         -1.8900   -1.6717    2.3871 C.ar      1 <0>         0.1597
      9 C6         -1.0589   -2.3862    3.2350 C.ar      1 <0>        -0.1497
     10 C7         -0.7737   -1.8936    4.4951 C.ar      1 <0>         0.0415
     11 C8         -1.3150   -0.6908    4.9105 C.ar      1 <0>        -0.6642
     12 C9         -2.1491    0.0245    4.0708 C.ar      1 <0>         0.0053
     13 C10        -2.4438   -0.4652    2.8098 C.ar      1 <0>         0.0560
     14 O2         -3.2871    0.2129    1.9871 O.3       1 <0>        -0.2905
     15 S1         -0.9410   -0.0676    6.5156 S.o2      1 <0>         2.6947
     16 O3          0.2720   -0.6878    6.9196 O.2       1 <0>        -0.9435
     17 O4         -1.0891    1.3440    6.4479 O.2       1 <0>        -0.9540
     18 N2         -2.1186   -0.6184    7.5413 N.pl3     1 <0>        -0.9799
     19 C11        -1.8725   -1.7997    8.3722 C.3       1 <0>         0.0922
     20 C12        -3.4066    0.0755    7.6178 C.3       1 <0>         0.0927
     21 C13        -4.3950   -0.5972    6.7004 C.2       1 <0>         0.4836
     22 O5         -4.0568   -1.5613    6.0470 O.2       1 <0>        -0.5162
     23 N3         -5.6546   -0.1274    6.6061 N.am      1 <0>        -0.7236
     24 C14        -6.6155   -0.7813    5.7143 C.3       1 <0>         0.1413
     25 C15        -6.5165   -0.1786    4.2977 C.3       1 <0>        -0.1318
     26 C16        -7.9808   -0.1514    3.7933 C.3       1 <0>        -0.1252
     27 C17        -8.7741    0.2315    5.0673 C.3       1 <0>        -0.1246
     28 C18        -8.0508   -0.5206    6.2037 C.3       1 <0>        -0.1316
     29 C19         0.1292   -2.6700    5.4187 C.3       1 <0>        -0.1389
     30 H2         -1.2616    3.0211    0.1812 H         1 <0>         0.0648
     31 H3         -2.9842    2.7265   -0.1567 H         1 <0>         0.0619
     32 H4         -2.3645    2.5743    1.5050 H         1 <0>         0.0654
     33 H5         -1.5974    0.7917   -0.8510 H         1 <0>         0.0877
     34 H6         -0.9777    0.6395    0.8107 H         1 <0>         0.0730
     35 H7         -1.9340   -3.0545    0.8486 H         1 <0>         0.4187
     36 H8         -0.6351   -3.3258    2.9125 H         1 <0>         0.1417
     37 H9         -2.5699    0.9637    4.3981 H         1 <0>         0.1463
     38 H10        -1.3738   -1.4984    9.2934 H         1 <0>         0.0659
     39 H11        -2.8215   -2.2788    8.6127 H         1 <0>         0.0769
     40 H12        -1.2391   -2.5007    7.8286 H         1 <0>         0.0772
     41 H13        -3.7784    0.0394    8.6418 H         1 <0>         0.1194
     42 H14        -3.2781    1.1145    7.3144 H         1 <0>         0.1221
     43 H15        -5.9251    0.6438    7.1287 H         1 <0>         0.4011
     44 H16        -6.4220   -1.8534    5.6791 H         1 <0>         0.0902
     45 H17        -6.1090    0.8314    4.3404 H         1 <0>         0.0715
     46 H18        -5.9036   -0.8115    3.6558 H         1 <0>         0.0694
     47 H19        -8.1081    0.6035    3.0175 H         1 <0>         0.0694
     48 H20        -8.2828   -1.1341    3.4310 H         1 <0>         0.0675
     49 H21        -8.7311    1.3078    5.2344 H         1 <0>         0.0679
     50 H22        -9.8087   -0.1021    4.9872 H         1 <0>         0.0682
     51 H23        -8.5542   -1.4661    6.4051 H         1 <0>         0.0740
     52 H24        -8.0325    0.0926    7.1047 H         1 <0>         0.0717
     53 H25         1.1453   -2.2827    5.3437 H         1 <0>         0.0975
     54 H26        -0.2245   -2.5662    6.4445 H         1 <0>         0.0861
     55 H27         0.1198   -3.7226    5.1358 H         1 <0>         0.0742
@<TRIPOS>BOND
     1    1    2 1
     2    1   30 1
     3    1   31 1
     4    1   32 1
     5    2    3 1
     6    2   33 1
     7    2   34 1
     8    3    4 1
     9    3   14 1
    10    3    5 1
    11    5    6 2
    12    5    7 am
    13    7    8 1
    14    7   35 1
    15    8   13 ar
    16    8    9 ar
    17    9   10 ar
    18    9   36 1
    19   10   11 ar
    20   10   29 1
    21   11   12 ar
    22   11   15 1
    23   12   13 ar
    24   12   37 1
    25   13   14 1
    26   15   16 2
    27   15   17 2
    28   15   18 1
    29   18   19 1
    30   18   20 1
    31   19   38 1
    32   19   39 1
    33   19   40 1
    34   20   21 1
    35   20   41 1
    36   20   42 1
    37   21   22 2
    38   21   23 am
    39   23   24 1
    40   23   43 1
    41   24   28 1
    42   24   25 1
    43   24   44 1
    44   25   26 1
    45   25   45 1
    46   25   46 1
    47   26   27 1
    48   26   47 1
    49   26   48 1
    50   27   28 1
    51   27   49 1
    52   27   50 1
    53   28   51 1
    54   28   52 1
    55   29   53 1
    56   29   54 1
    57   29   55 1
@<TRIPOS>MOLECULE
ZINC08906380
   51    54     0     0     0
SMALL
USER_CHARGES
N-[5-[(5-methyl-1,3,4-thiadiazol-2-yl)carbamoylmethylsulfanyl]-1,3,4-thiadiazol-2-yl]-5-oxo-1-(p-tolyl)pyrrolidine-3-carboxamide
@<TRIPOS>ATOM
      1 C1         -0.0184    1.5028    0.0103 C.3       1 <0>        -0.1137
      2 C2          0.0021   -0.0041    0.0020 C.ar      1 <0>        -0.1075
      3 C3          0.0096   -0.6874   -1.2002 C.ar      1 <0>        -0.0930
      4 C4          0.0332   -2.0682   -1.2112 C.ar      1 <0>        -0.1509
      5 C5          0.0382   -2.7707   -0.0132 C.ar      1 <0>         0.1549
      6 C6          0.0253   -2.0816    1.1924 C.ar      1 <0>        -0.1498
      7 C7          0.0075   -0.7006    1.1966 C.ar      1 <0>        -0.0922
      8 N1          0.0567   -4.1698   -0.0209 N.am      1 <0>        -0.5567
      9 C8         -0.0554   -4.9928   -1.2308 C.3       1 <0>         0.1116
     10 C9          0.4478   -6.3964   -0.8203 C.3       1 <0>        -0.1162
     11 H1          1.5134   -6.5078   -1.0206 H         1 <0>         0.1366
     12 C10         0.1674   -6.3973    0.7003 C.3       1 <0>        -0.1489
     13 C11         0.1738   -4.9328    1.0795 C.2       1 <0>         0.5203
     14 O1          0.2708   -4.5088    2.2118 O.2       1 <0>        -0.4993
     15 C12        -0.3442   -7.4738   -1.5154 C.2       1 <0>         0.5248
     16 O2         -1.1593   -7.1763   -2.3628 O.2       1 <0>        -0.4547
     17 N2         -0.1467   -8.7681   -1.1953 N.am      1 <0>        -0.6086
     18 C13        -0.8786   -9.7638   -1.8377 C.2       1 <0>         0.2774
     19 N3         -1.8041   -9.6662   -2.7779 N.2       1 <0>        -0.2684
     20 N4         -2.3774  -10.6812   -3.2595 N.2       1 <0>        -0.2597
     21 C14        -2.0876  -11.9085   -2.8528 C.2       1 <0>        -0.0065
     22 S1         -0.8298  -11.5418   -1.6322 S.3       1 <0>         0.0663
     23 S2         -2.7458  -13.4587   -3.3707 S.3       1 <0>         0.1489
     24 C15        -3.9649  -13.0161   -4.6389 C.3       1 <0>        -0.1597
     25 C16        -4.6115  -14.2682   -5.1729 C.2       1 <0>         0.5326
     26 O3         -4.2823  -15.3525   -4.7405 O.2       1 <0>        -0.4477
     27 N5         -5.5556  -14.1832   -6.1310 N.am      1 <0>        -0.6067
     28 C17        -6.1523  -15.3388   -6.6238 C.2       1 <0>         0.2597
     29 N6         -5.9423  -16.6017   -6.2941 N.2       1 <0>        -0.2871
     30 N7         -6.5738  -17.5477   -6.8416 N.2       1 <0>        -0.2475
     31 C18        -7.4750  -17.3042   -7.7721 C.2       1 <0>         0.0562
     32 S3         -7.3850  -15.5187   -7.8376 S.3       1 <0>         0.0270
     33 C19        -8.3408  -18.2584   -8.5538 C.3       1 <0>        -0.0607
     34 H2          1.0043    1.8800    0.0158 H         1 <0>         0.0700
     35 H3         -0.5341    1.8640   -0.8794 H         1 <0>         0.0661
     36 H4         -0.5400    1.8542    0.9005 H         1 <0>         0.0663
     37 H5          0.0008   -0.1406   -2.1315 H         1 <0>         0.1276
     38 H6          0.0432   -2.6013   -2.1504 H         1 <0>         0.1267
     39 H7          0.0295   -2.6250    2.1258 H         1 <0>         0.1546
     40 H8         -0.0026   -0.1641    2.1339 H         1 <0>         0.1273
     41 H9         -1.0939   -5.0422   -1.5585 H         1 <0>         0.1033
     42 H10         0.5720   -4.5854   -2.0236 H         1 <0>         0.1001
     43 H11         0.9534   -6.9327    1.2329 H         1 <0>         0.1233
     44 H12        -0.8055   -6.8416    0.9106 H         1 <0>         0.1173
     45 H13         0.5052   -9.0060   -0.5176 H         1 <0>         0.4322
     46 H14        -4.7274  -12.3719   -4.2009 H         1 <0>         0.1389
     47 H15        -3.4674  -12.4886   -5.4528 H         1 <0>         0.1390
     48 H16        -5.8189  -13.3160   -6.4768 H         1 <0>         0.4334
     49 H17        -9.2769  -18.4206   -8.0195 H         1 <0>         0.0976
     50 H18        -8.5517  -17.8361   -9.5363 H         1 <0>         0.0921
     51 H19        -7.8199  -19.2087   -8.6710 H         1 <0>         0.1035
@<TRIPOS>BOND
     1    1    2 1
     2    1   34 1
     3    1   35 1
     4    1   36 1
     5    2    7 ar
     6    2    3 ar
     7    3    4 ar
     8    3   37 1
     9    4    5 ar
    10    4   38 1
    11    5    6 ar
    12    5    8 1
    13    6    7 ar
    14    6   39 1
    15    7   40 1
    16    8   13 am
    17    8    9 1
    18    9   10 1
    19    9   41 1
    20    9   42 1
    21   10   11 1
    22   10   12 1
    23   10   15 1
    24   12   13 1
    25   12   43 1
    26   12   44 1
    27   13   14 2
    28   15   16 2
    29   15   17 am
    30   17   18 1
    31   17   45 1
    32   18   22 1
    33   18   19 2
    34   19   20 1
    35   20   21 2
    36   21   22 1
    37   21   23 1
    38   23   24 1
    39   24   25 1
    40   24   46 1
    41   24   47 1
    42   25   26 2
    43   25   27 am
    44   27   28 1
    45   27   48 1
    46   28   32 1
    47   28   29 2
    48   29   30 1
    49   30   31 2
    50   31   32 1
    51   31   33 1
    52   33   49 1
    53   33   50 1
    54   33   51 1
@<TRIPOS>MOLECULE
ZINC09838477
   66    68     0     0     0
SMALL
USER_CHARGES
N-[2-(1-cyclohexenyl)ethyl]-2-(1,3-dimethyl-2,4-dioxo-quinazolin-6-yl)sulfonylamino-4-methylsulfanyl-butanamide
@<TRIPOS>ATOM
      1 C1         -3.5100    0.3656    4.3706 C.3       1 <0>         0.0714
      2 N1         -2.9919    1.3529    3.4203 N.am      1 <0>        -0.5416
      3 C2         -2.9213    2.6889    3.7877 C.ar      1 <0>         0.2549
      4 C3         -3.3313    3.1204    5.0399 C.ar      1 <0>        -0.1806
      5 C4         -3.2448    4.4593    5.3656 C.ar      1 <0>         0.0553
      6 C5         -2.7519    5.3785    4.4520 C.ar      1 <0>        -0.7218
      7 C6         -2.3390    4.9678    3.2019 C.ar      1 <0>         0.0823
      8 C7         -2.4211    3.6198    2.8609 C.ar      1 <0>        -0.2176
      9 C8         -1.9891    3.1263    1.5409 C.2       1 <0>         0.5649
     10 O1         -1.5442    3.8890    0.7049 O.2       1 <0>        -0.4798
     11 N2         -2.1051    1.8057    1.2821 N.am      1 <0>        -0.5590
     12 C9         -2.5899    0.9557    2.2007 C.2       1 <0>         0.7027
     13 O2         -2.6685   -0.2241    1.9178 O.2       1 <0>        -0.5298
     14 C10        -1.6882    1.2903   -0.0244 C.3       1 <0>         0.0755
     15 S1         -2.6520    7.0820    4.8911 S.o2      1 <0>         2.6974
     16 O3         -2.6685    7.8165    3.6748 O.2       1 <0>        -0.9401
     17 O4         -3.6078    7.2925    5.9213 O.2       1 <0>        -0.9444
     18 N3         -1.1618    7.3257    5.5710 N.pl3     1 <0>        -1.0965
     19 C11         0.0483    7.1621    4.7616 C.3       1 <0>         0.1425
     20 H1         -0.1644    6.5043    3.9189 H         1 <0>         0.1159
     21 C12         0.5020    8.5274    4.2410 C.3       1 <0>        -0.1208
     22 C13         0.7527    9.4663    5.4227 C.3       1 <0>        -0.0891
     23 S2          1.4063   11.0447    4.8129 S.3       1 <0>        -0.2561
     24 C14         1.6460   12.0307    6.3166 C.3       1 <0>        -0.1215
     25 C15         1.1402    6.5586    5.6068 C.2       1 <0>         0.5109
     26 O5          0.9285    6.2914    6.7707 O.2       1 <0>        -0.5228
     27 N4          2.3521    6.3157    5.0693 N.am      1 <0>        -0.7258
     28 C16         3.4136    5.7290    5.8910 C.3       1 <0>         0.1256
     29 C17         4.6774    5.5582    5.0457 C.3       1 <0>        -0.0997
     30 C18         5.7693    4.9546    5.8909 C.2       1 <0>        -0.1221
     31 C19         5.9279    3.6706    5.8513 C.2       1 <0>        -0.1456
     32 C20         6.9635    2.9265    6.6424 C.3       1 <0>        -0.0921
     33 C21         8.0400    3.8926    7.1418 C.3       1 <0>        -0.1221
     34 C22         7.3474    5.0894    7.8059 C.3       1 <0>        -0.1212
     35 C23         6.6091    5.8803    6.7215 C.3       1 <0>        -0.0831
     36 H2         -3.4919   -0.6235    3.9130 H         1 <0>         0.1101
     37 H3         -2.8890    0.3629    5.2664 H         1 <0>         0.0840
     38 H4         -4.5345    0.6228    4.6395 H         1 <0>         0.0845
     39 H5         -3.7172    2.4119    5.7579 H         1 <0>         0.1537
     40 H6         -3.5645    4.7940    6.3414 H         1 <0>         0.1576
     41 H7         -1.9556    5.6861    2.4923 H         1 <0>         0.1635
     42 H8         -1.8462    0.2123   -0.0570 H         1 <0>         0.1056
     43 H9         -0.6315    1.5075   -0.1803 H         1 <0>         0.0830
     44 H10        -2.2768    1.7676   -0.8079 H         1 <0>         0.0836
     45 H11        -1.0901    7.5768    6.5052 H         1 <0>         0.4292
     46 H12         1.4221    8.4104    3.6683 H         1 <0>         0.0928
     47 H13        -0.2733    8.9481    3.6008 H         1 <0>         0.1075
     48 H14        -0.1836    9.6412    5.9528 H         1 <0>         0.0871
     49 H15         1.4748    9.0118    6.1011 H         1 <0>         0.0814
     50 H16         0.6910   12.1517    6.8278 H         1 <0>         0.0780
     51 H17         2.3493   11.5223    6.9761 H         1 <0>         0.0762
     52 H18         2.0418   13.0105    6.0493 H         1 <0>         0.1039
     53 H19         2.5214    6.5294    4.1384 H         1 <0>         0.4041
     54 H20         3.6263    6.3868    6.7337 H         1 <0>         0.0714
     55 H21         3.0903    4.7564    6.2619 H         1 <0>         0.0700
     56 H22         4.4646    4.9004    4.2030 H         1 <0>         0.0750
     57 H23         5.0006    6.5308    4.6748 H         1 <0>         0.0785
     58 H24         5.2745    3.0992    5.2086 H         1 <0>         0.1024
     59 H25         6.4879    2.4431    7.4957 H         1 <0>         0.0739
     60 H26         7.4262    2.1690    6.0096 H         1 <0>         0.0715
     61 H27         8.6765    3.3880    7.8687 H         1 <0>         0.0653
     62 H28         8.6413    4.2377    6.3007 H         1 <0>         0.0644
     63 H29         6.6373    4.7338    8.5525 H         1 <0>         0.0645
     64 H30         8.0928    5.7257    8.2830 H         1 <0>         0.0661
     65 H31         7.3331    6.3840    6.0810 H         1 <0>         0.0742
     66 H32         5.9677    6.6247    7.1933 H         1 <0>         0.0706
@<TRIPOS>BOND
     1    1    2 1
     2    1   36 1
     3    1   37 1
     4    1   38 1
     5    2   12 am
     6    2    3 1
     7    3    8 ar
     8    3    4 ar
     9    4    5 ar
    10    4   39 1
    11    5    6 ar
    12    5   40 1
    13    6    7 ar
    14    6   15 1
    15    7    8 ar
    16    7   41 1
    17    8    9 1
    18    9   10 2
    19    9   11 am
    20   11   12 am
    21   11   14 1
    22   12   13 2
    23   14   42 1
    24   14   43 1
    25   14   44 1
    26   15   16 2
    27   15   17 2
    28   15   18 1
    29   18   19 1
    30   18   45 1
    31   19   20 1
    32   19   21 1
    33   19   25 1
    34   21   22 1
    35   21   46 1
    36   21   47 1
    37   22   23 1
    38   22   48 1
    39   22   49 1
    40   23   24 1
    41   24   50 1
    42   24   51 1
    43   24   52 1
    44   25   26 2
    45   25   27 am
    46   27   28 1
    47   27   53 1
    48   28   29 1
    49   28   54 1
    50   28   55 1
    51   29   30 1
    52   29   56 1
    53   29   57 1
    54   30   35 1
    55   30   31 2
    56   31   32 1
    57   31   58 1
    58   32   33 1
    59   32   59 1
    60   32   60 1
    61   33   34 1
    62   33   61 1
    63   33   62 1
    64   34   35 1
    65   34   63 1
    66   34   64 1
    67   35   65 1
    68   35   66 1
@<TRIPOS>MOLECULE
ZINC21727830
   62    65     0     0     0
SMALL
USER_CHARGES
7-[(2R)-3-(4-chlorophenyl)sulfanyl-2-methyl-propyl]-8-[4-(2-hydroxyethyl)piperazin-1-yl]-3-methyl-purine-2,6-dione
@<TRIPOS>ATOM
      1 C1          2.4470   -4.7513    1.4828 C.3       1 <0>        -0.1467
      2 C2          2.9453   -4.2147    0.1395 C.3       1 <0>        -0.0841
      3 H1          2.3147   -4.6107   -0.6701 H         1 <0>         0.0914
      4 C3          4.3938   -4.6556   -0.0802 C.3       1 <0>         0.1164
      5 N1          4.4470   -6.1146   -0.2019 N.pl3     1 <0>        -0.4008
      6 C4          4.2337   -6.8581   -1.3550 C.2       1 <0>        -0.1551
      7 C5          3.9224   -6.5388   -2.6884 C.2       1 <0>         0.5995
      8 O1          3.7832   -5.3763   -3.0268 O.2       1 <0>        -0.5173
      9 N2          3.7794   -7.5328   -3.5893 N.am      1 <0>        -0.6662
     10 H2          3.5363   -7.2960   -4.6356 H         1 <0>         0.4707
     11 C6          3.9296   -8.8194   -3.2302 C.2       1 <0>         0.7101
     12 O2          3.7929   -9.6891   -4.0691 O.2       1 <0>        -0.5354
     13 N3          4.2272   -9.1688   -1.9645 N.am      1 <0>        -0.5104
     14 C7          4.3869   -8.1925   -0.9943 C.2       1 <0>         0.3364
     15 N4          4.6759   -8.2268    0.3076 N.2       1 <0>        -0.5157
     16 C8          4.7205   -7.0018    0.7909 C.2       1 <0>         0.4697
     17 N5          4.9973   -6.6723    2.0978 N.pl3     1 <0>        -0.4603
     18 C9          6.3995   -6.2602    2.2514 C.3       1 <0>         0.0589
     19 C10         6.6456   -5.8270    3.6986 C.3       1 <0>         0.0588
     20 N6          6.3251   -6.9411    4.6018 N.3       1 <0>        -0.5285
     21 C11         4.9229   -7.3532    4.4483 C.3       1 <0>         0.0525
     22 C12         4.6769   -7.7863    3.0011 C.3       1 <0>         0.0742
     23 C13         6.6207   -6.5892    5.9971 C.3       1 <0>         0.0535
     24 C14         6.7488   -7.8669    6.8291 C.3       1 <0>         0.0915
     25 O3          7.8747   -8.6204    6.3745 O.3       1 <0>        -0.5885
     26 C15         4.3827  -10.5825   -1.6129 C.3       1 <0>         0.0877
     27 C16         2.8722   -2.6864    0.1420 C.3       1 <0>        -0.1065
     28 S1          1.1387   -2.1641    0.2542 S.3       1 <0>        -0.0885
     29 C17         1.2224   -0.4041    0.2462 C.ar      1 <0>        -0.0827
     30 C18         0.0567    0.3487    0.3210 C.ar      1 <0>        -0.0884
     31 C19         0.1255    1.7278    0.3140 C.ar      1 <0>        -0.0894
     32 C20         1.3538    2.3604    0.2327 C.ar      1 <0>        -0.0416
     33 C21         2.5165    1.6134    0.1580 C.ar      1 <0>        -0.0890
     34 C22         2.4541    0.2339    0.1645 C.ar      1 <0>        -0.1227
     35 Cl1         1.4362    4.0944    0.2243 Cl        1 <0>        -0.0655
     36 H3          1.4056   -4.4343    1.6407 H         1 <0>         0.0671
     37 H4          3.0776   -4.3554    2.2925 H         1 <0>         0.0654
     38 H5          2.4996   -5.8500    1.4810 H         1 <0>         0.0592
     39 H6          4.7811   -4.1964   -1.0017 H         1 <0>         0.1059
     40 H7          5.0080   -4.3363    0.7747 H         1 <0>         0.1053
     41 H8          7.0592   -7.1048    2.0032 H         1 <0>         0.0670
     42 H9          6.6107   -5.4189    1.5749 H         1 <0>         0.0836
     43 H10         7.7017   -5.5454    3.8225 H         1 <0>         0.0907
     44 H11         6.0058   -4.9646    3.9371 H         1 <0>         0.0464
     45 H12         4.7118   -8.1945    5.1248 H         1 <0>         0.0895
     46 H13         4.2632   -6.5087    4.6966 H         1 <0>         0.0458
     47 H14         3.6209   -8.0676    2.8760 H         1 <0>         0.0898
     48 H15         5.3168   -8.6483    2.7615 H         1 <0>         0.0741
     49 H16         7.5650   -6.0267    6.0412 H         1 <0>         0.0828
     50 H17         5.8057   -5.9697    6.3996 H         1 <0>         0.0538
     51 H18         6.8877   -7.6026    7.8878 H         1 <0>         0.0440
     52 H19         5.8353   -8.4697    6.7185 H         1 <0>         0.0408
     53 H20         8.1273   -9.5766    6.8561 H         1 <0>         0.4043
     54 H21         4.6228  -10.6700   -0.5430 H         1 <0>         0.0993
     55 H22         5.1970  -11.0210   -2.2084 H         1 <0>         0.0800
     56 H23         3.4451  -11.1179   -1.8233 H         1 <0>         0.0801
     57 H24         3.4299   -2.2941    1.0051 H         1 <0>         0.0945
     58 H25         3.3131   -2.2967   -0.7873 H         1 <0>         0.0958
     59 H26        -0.9020   -0.1444    0.3849 H         1 <0>         0.1380
     60 H27        -0.7803    2.3134    0.3677 H         1 <0>         0.1400
     61 H28         3.4735    2.1098    0.0949 H         1 <0>         0.1371
     62 H29         3.3618   -0.3485    0.1066 H         1 <0>         0.1315
@<TRIPOS>BOND
     1    1    2 1
     2    1   36 1
     3    1   37 1
     4    1   38 1
     5    2    3 1
     6    2    4 1
     7    2   27 1
     8    4    5 1
     9    4   39 1
    10    4   40 1
    11    5   16 1
    12    5    6 1
    13    6   14 2
    14    6    7 1
    15    7    8 2
    16    7    9 am
    17    9   10 1
    18    9   11 am
    19   11   12 2
    20   11   13 am
    21   13   14 1
    22   13   26 1
    23   14   15 1
    24   15   16 2
    25   16   17 1
    26   17   22 1
    27   17   18 1
    28   18   19 1
    29   18   41 1
    30   18   42 1
    31   19   20 1
    32   19   43 1
    33   19   44 1
    34   20   21 1
    35   20   23 1
    36   21   22 1
    37   21   45 1
    38   21   46 1
    39   22   47 1
    40   22   48 1
    41   23   24 1
    42   23   49 1
    43   23   50 1
    44   24   25 1
    45   24   51 1
    46   24   52 1
    47   25   53 1
    48   26   54 1
    49   26   55 1
    50   26   56 1
    51   27   28 1
    52   27   57 1
    53   27   58 1
    54   28   29 1
    55   29   34 ar
    56   29   30 ar
    57   30   31 ar
    58   30   59 1
    59   31   32 ar
    60   31   60 1
    61   32   33 ar
    62   32   35 1
    63   33   34 ar
    64   33   61 1
    65   34   62 1
@<TRIPOS>MOLECULE
ZINC35934942
   63    66     0     0     0
SMALL
USER_CHARGES

@<TRIPOS>ATOM
      1 C1         -0.0187    1.5258    0.0104 C.3       1 <0>        -0.1712
      2 C2          0.0021   -0.0041    0.0020 C.3       1 <0>         0.0998
      3 N1          0.6878   -0.4765   -1.2033 N.am      1 <0>        -0.5246
      4 C3         -0.0571   -0.6904   -2.3279 C.2       1 <0>         0.1750
      5 C4          0.5117   -1.1245   -3.4708 C.2       1 <0>        -0.2767
      6 C5          2.0074   -1.3675   -3.4654 C.3       1 <0>         0.2529
      7 H1          2.4525   -0.7409   -4.2382 H         1 <0>         0.1000
      8 N2          2.7205   -1.1075   -2.2034 N.am      1 <0>        -0.7128
      9 C6          2.0118   -0.6699   -1.1437 C.2       1 <0>         0.7118
     10 O1          2.5922   -0.4484   -0.0989 O.2       1 <0>        -0.5530
     11 C7          2.2458   -2.8063   -3.8450 C.ar      1 <0>        -0.0999
     12 C8          2.3974   -3.7648   -2.8604 C.ar      1 <0>        -0.0796
     13 C9          2.6161   -5.0844   -3.2078 C.ar      1 <0>        -0.1109
     14 C10         2.6830   -5.4472   -4.5415 C.ar      1 <0>        -0.0189
     15 C11         2.5309   -4.4888   -5.5270 C.ar      1 <0>        -0.1055
     16 C12         2.3072   -3.1686   -5.1787 C.ar      1 <0>         0.0054
     17 Cl1         2.1102   -1.9659   -6.4150 Cl        1 <0>        -0.0203
     18 Cl2         2.9582   -7.1048   -4.9776 Cl        1 <0>        -0.0565
     19 C13        -0.4625   -1.2669   -4.4800 C.2       1 <0>         0.5721
     20 O2         -0.2287   -1.6441   -5.6138 O.2       1 <0>        -0.5030
     21 N3         -1.6842   -0.9322   -4.0269 N.am      1 <0>        -0.6214
     22 C14        -1.5331   -0.5363   -2.6188 C.3       1 <0>         0.1409
     23 C15        -2.9323   -0.9570   -4.7935 C.3       1 <0>         0.1608
     24 C16        -3.5902   -2.3311   -4.6526 C.3       1 <0>        -0.1609
     25 C17        -4.8742   -2.3565   -5.4412 C.2       1 <0>         0.5207
     26 O3         -5.2281   -1.3725   -6.0555 O.2       1 <0>        -0.5348
     27 N4         -5.6291   -3.4728   -5.4638 N.am      1 <0>        -0.7316
     28 C18        -6.8772   -3.4976   -6.2304 C.3       1 <0>         0.1211
     29 C19        -7.5352   -4.8717   -6.0895 C.3       1 <0>         0.0443
     30 N5         -8.7867   -4.8965   -6.8582 N.3       1 <0>        -0.5336
     31 C20        -9.7792   -3.9797   -6.2787 C.3       1 <0>         0.0119
     32 C21       -11.0431   -3.9922   -7.1427 C.3       1 <0>         0.0625
     33 O4        -11.5350   -5.3315   -7.2398 O.3       1 <0>        -0.3848
     34 C22       -10.5941   -6.2511   -7.8006 C.3       1 <0>         0.0625
     35 C23        -9.3257   -6.2616   -6.9433 C.3       1 <0>         0.0185
     36 H2          1.0039    1.9031    0.0027 H         1 <0>         0.0660
     37 H3         -0.5459    1.8868   -0.8726 H         1 <0>         0.0588
     38 H4         -0.5289    1.8773    0.9072 H         1 <0>         0.0789
     39 H5          0.5293   -0.3651    0.8851 H         1 <0>         0.1044
     40 H6         -1.0205   -0.3814    0.0098 H         1 <0>         0.0904
     41 H7          3.6785   -1.2444   -2.1373 H         1 <0>         0.4360
     42 H8          2.3453   -3.4822   -1.8194 H         1 <0>         0.1344
     43 H9          2.7352   -5.8327   -2.4381 H         1 <0>         0.1396
     44 H10         2.5830   -4.7714   -6.5681 H         1 <0>         0.1454
     45 H11        -2.1170   -1.1943   -1.9752 H         1 <0>         0.1095
     46 H12        -1.8404    0.5004   -2.4813 H         1 <0>         0.1126
     47 H13        -3.6074   -0.1902   -4.4135 H         1 <0>         0.0922
     48 H14        -2.7172   -0.7632   -5.8444 H         1 <0>         0.1003
     49 H15        -2.9152   -3.0978   -5.0326 H         1 <0>         0.1019
     50 H16        -3.8054   -2.5248   -3.6017 H         1 <0>         0.0962
     51 H17        -5.3460   -4.2598   -4.9725 H         1 <0>         0.4011
     52 H18        -7.5523   -2.7308   -5.8504 H         1 <0>         0.0694
     53 H19        -6.6621   -3.3038   -7.2813 H         1 <0>         0.0795
     54 H20        -6.8601   -5.6384   -6.4695 H         1 <0>         0.0843
     55 H21        -7.7503   -5.0654   -5.0386 H         1 <0>         0.0429
     56 H22       -10.0264   -4.3029   -5.2675 H         1 <0>         0.0455
     57 H23        -9.3687   -2.9705   -6.2488 H         1 <0>         0.0907
     58 H24       -11.8026   -3.3577   -6.6857 H         1 <0>         0.1003
     59 H25       -10.8067   -3.6181   -8.1388 H         1 <0>         0.0623
     60 H26       -11.0289   -7.2505   -7.8195 H         1 <0>         0.1005
     61 H27       -10.3447   -5.9428   -8.8159 H         1 <0>         0.0620
     62 H28        -8.5841   -6.9180   -7.3986 H         1 <0>         0.0888
     63 H29        -9.5657   -6.6212   -5.9427 H         1 <0>         0.0453
@<TRIPOS>BOND
     1    1    2 1
     2    1   36 1
     3    1   37 1
     4    1   38 1
     5    2    3 1
     6    2   39 1
     7    2   40 1
     8    3    9 am
     9    3    4 1
    10    4   22 1
    11    4    5 2
    12    5    6 1
    13    5   19 1
    14    6    7 1
    15    6    8 1
    16    6   11 1
    17    8    9 am
    18    8   41 1
    19    9   10 2
    20   11   16 ar
    21   11   12 ar
    22   12   13 ar
    23   12   42 1
    24   13   14 ar
    25   13   43 1
    26   14   15 ar
    27   14   18 1
    28   15   16 ar
    29   15   44 1
    30   16   17 1
    31   19   20 2
    32   19   21 am
    33   21   22 1
    34   21   23 1
    35   22   45 1
    36   22   46 1
    37   23   24 1
    38   23   47 1
    39   23   48 1
    40   24   25 1
    41   24   49 1
    42   24   50 1
    43   25   26 2
    44   25   27 am
    45   27   28 1
    46   27   51 1
    47   28   29 1
    48   28   52 1
    49   28   53 1
    50   29   30 1
    51   29   54 1
    52   29   55 1
    53   30   35 1
    54   30   31 1
    55   31   32 1
    56   31   56 1
    57   31   57 1
    58   32   33 1
    59   32   58 1
    60   32   59 1
    61   33   34 1
    62   34   35 1
    63   34   60 1
    64   34   61 1
    65   35   62 1
    66   35   63 1
