@<TRIPOS>MOLECULE
1D3G-BRE
 42 45 0 0 0
SMALL
SF_CHARGES


@<TRIPOS>ATOM
1    C        50.0330   43.3060   -5.2500  C.3        1 SUBUNIT     -0.0508
2    C        49.7120   42.4580   -4.0370  C.2        1 SUBUNIT     -0.0549
3    C        50.2340   42.7540   -2.7920  C.2        1 SUBUNIT      0.2654
4    C        48.8510   41.3720   -4.1630  C.2        1 SUBUNIT     -0.0510
5    N        49.9670   41.9490   -1.7270  N.2        1 SUBUNIT     -0.5119
6    C        48.2990   41.0310   -5.5210  C.2        1 SUBUNIT      0.7854
7    C        51.1700   43.8720   -2.4830  C.2        1 SUBUNIT     -0.0257
8    C        48.5240   40.5940   -3.0520  C.2        1 SUBUNIT     -0.0299
9    C        49.1130   40.9190   -1.8360  C.2        1 SUBUNIT      0.2693
10   C        52.2830   44.0620   -3.3090  C.2        1 SUBUNIT     -0.1014
11   C        50.9840   44.6410   -1.3570  C.2        1 SUBUNIT     -0.1014
12   O        47.1710   41.2320   -5.8680  O.co2      1 SUBUNIT     -0.8940
13   O        49.1690   40.4600   -6.3790  O.co2      1 SUBUNIT     -0.8940
14   C        47.5990   39.5560   -3.0780  C.2        1 SUBUNIT     -0.1172
15   C        48.7810   40.2100   -0.6860  C.2        1 SUBUNIT     -0.1215
16   C        53.1650   45.0550   -2.9440  C.2        1 SUBUNIT     -0.1022
17   C        51.8860   45.6300   -1.0000  C.2        1 SUBUNIT     -0.1022
18   C        47.2690   38.8550   -1.9320  C.2        1 SUBUNIT      0.1455
19   C        47.8720   39.1670   -0.7230  C.2        1 SUBUNIT     -0.1108
20   C        52.9960   45.8600   -1.8290  C.2        1 SUBUNIT     -0.0074
21   F        46.3970   37.9740   -1.9620  F          1 SUBUNIT     -0.1886
22   C        54.0720   46.8850   -1.4230  C.2        1 SUBUNIT     -0.0074
23   C        54.6510   46.7710   -0.1480  C.2        1 SUBUNIT     -0.1021
24   C        54.6160   47.7880   -2.3290  C.2        1 SUBUNIT     -0.1021
25   C        55.6780   47.6130    0.2470  C.2        1 SUBUNIT     -0.0970
26   C        56.1860   48.5320   -0.6530  C.2        1 SUBUNIT     -0.0969
27   C        55.6390   48.6290   -1.9150  C.2        1 SUBUNIT     -0.0970
28   H        49.7073   44.3410   -5.1026  H          1 SUBUNIT      0.0579
29   H        49.5312   42.9192   -6.1431  H          1 SUBUNIT      0.0579
30   H        51.1100   43.3170   -5.4472  H          1 SUBUNIT      0.0579
31   H        52.4491   43.4652   -4.1888  H          1 SUBUNIT      0.1156
32   H        50.1178   44.4677   -0.7426  H          1 SUBUNIT      0.1156
33   H        47.1283   39.2903   -4.0084  H          1 SUBUNIT      0.1137
34   H        49.2381   40.4755    0.2512  H          1 SUBUNIT      0.1125
35   H        54.0325   45.2119   -3.5610  H          1 SUBUNIT      0.1108
36   H        51.7331   46.2064   -0.1044  H          1 SUBUNIT      0.1108
37   H        47.6388   38.6106    0.1680  H          1 SUBUNIT      0.1094
38   H        54.2966   46.0209    0.5372  H          1 SUBUNIT      0.1084
39   H        54.2489   47.8350   -3.3393  H          1 SUBUNIT      0.1084
40   H        56.0772   47.5532    1.2444  H          1 SUBUNIT      0.1076
41   H        57.0053   49.1699   -0.3708  H          1 SUBUNIT      0.1075
42   H        56.0164   49.3752   -2.5921  H          1 SUBUNIT      0.1076
@<TRIPOS>BOND
     1    1    2 1
     2    2    3 2
     3    2    4 1
     4    3    5 1
     5    3    7 1
     6    4    6 1
     7    4    8 2
     8    5    9 2
     9    6   12 2
    10    6   13 1
    11    7   10 2
    12    7   11 1
    13    8    9 1
    14    8   14 1
    15    9   15 1
    16   10   16 1
    17   11   17 2
    18   14   18 2
    19   15   19 2
    20   16   20 2
    21   17   20 1
    22   18   19 1
    23   18   21 1
    24   20   22 1
    25   22   23 2
    26   22   24 1
    27   23   25 1
    28   24   27 2
    29   25   26 2
    30   26   27 1
    31    1   28 1
    32    1   29 1
    33    1   30 1
    34   10   31 1
    35   11   32 1
    36   14   33 1
    37   15   34 1
    38   16   35 1
    39   17   36 1
    40   19   37 1
    41   23   38 1
    42   24   39 1
    43   25   40 1
    44   26   41 1
    45   27   42 1
