@<TRIPOS>MOLECULE
CHEMBL100154
   29    29     0     0     0
SMALL
USER_CHARGES

@<TRIPOS>ATOM
      1 C1         -0.0184    1.5028    0.0103 C.3       1 <0>        -0.1125
      2 C2          0.0021   -0.0041    0.0020 C.ar      1 <0>        -0.1755
      3 C3          0.0059   -0.6986   -1.1944 C.ar      1 <0>         0.0010
      4 C4          0.0249   -2.0863   -1.1549 C.ar      1 <0>        -0.2315
      5 C5          0.0393   -2.7279    0.0675 C.ar      1 <0>         0.1672
      6 N1          0.0348   -2.0396    1.1931 N.ar      1 <0>        -0.4710
      7 C6          0.0231   -0.7154    1.1972 C.ar      1 <0>         0.4388
      8 N2          0.0253   -0.0302    2.4066 N.pl3     1 <0>        -0.5692
      9 C7          0.0473   -0.7728    3.6692 C.3       1 <0>        -1.0747
     10 P1         -0.3997    0.3439    5.0390 P.3       1 <0>         2.3471
     11 O1         -1.8169    0.9108    4.7997 O.2       1 <0>        -1.1040
     12 C8         -0.3722   -0.5802    6.6101 C.3       1 <0>        -0.7913
     13 O2          0.6153    1.5067    5.1076 O.3       1 <0>        -1.0602
     14 P2          1.7195   -1.4417    3.9516 P.3       1 <0>         2.1454
     15 O3          2.1037   -2.4015    2.7744 O.2       1 <0>        -1.1597
     16 O4          2.7487   -0.2626    4.0212 O.3       1 <0>        -1.1167
     17 O5          1.7431   -2.2359    5.3018 O.3       1 <0>        -1.1485
     18 H1          1.0042    1.8801    0.0026 H         1 <0>         0.0876
     19 H2         -0.5455    1.8639   -0.8728 H         1 <0>         0.0799
     20 H3         -0.5286    1.8543    0.9071 H         1 <0>         0.0757
     21 H4         -0.0059   -0.1732   -2.1379 H         1 <0>         0.1503
     22 H5          0.0281   -2.6581   -2.0711 H         1 <0>         0.1554
     23 H6          0.0541   -3.8072    0.1028 H         1 <0>         0.1822
     24 H7          0.0122    0.9397    2.4146 H         1 <0>         0.4308
     25 H8         -0.6687   -1.5932    3.6208 H         1 <0>         0.0782
     26 H9          0.6276   -0.9801    6.7790 H         1 <0>         0.1180
     27 H10        -0.6395    0.0875    7.4292 H         1 <0>         0.0675
     28 H11        -1.0883   -1.4006    6.5617 H         1 <0>         0.0493
     29 H12         0.0448   -2.5151    2.0385 H         1 <0>         0.4403
@<TRIPOS>BOND
     1    1    2 1
     2    1   18 1
     3    1   19 1
     4    1   20 1
     5    2    7 ar
     6    2    3 ar
     7    3    4 ar
     8    3   21 1
     9    4    5 ar
    10    4   22 1
    11    5    6 ar
    12    5   23 1
    13    6    7 ar
    14    6   29 1
    15    7    8 1
    16    8    9 1
    17    8   24 1
    18    9   10 1
    19    9   14 1
    20    9   25 1
    21   10   11 2
    22   10   12 1
    23   10   13 1
    24   12   26 1
    25   12   27 1
    26   12   28 1
    27   14   15 2
    28   14   16 1
    29   14   17 1
@<TRIPOS>MOLECULE
CHEMBL100154__1
   30    30     0     0     0
SMALL
USER_CHARGES

@<TRIPOS>ATOM
      1 C1         -0.0184    1.5028    0.0103 C.3       1 <0>        -0.1180
      2 C2          0.0021   -0.0041    0.0020 C.ar      1 <0>        -0.1667
      3 C3          0.0059   -0.6986   -1.1944 C.ar      1 <0>         0.0119
      4 C4          0.0249   -2.0863   -1.1549 C.ar      1 <0>        -0.2021
      5 C5          0.0393   -2.7279    0.0675 C.ar      1 <0>         0.1599
      6 N1          0.0348   -2.0396    1.1931 N.ar      1 <0>        -0.4731
      7 C6          0.0231   -0.7154    1.1972 C.ar      1 <0>         0.4429
      8 N2          0.0253   -0.0302    2.4066 N.pl3     1 <0>        -0.6132
      9 C7          0.0473   -0.7728    3.6692 C.3       1 <0>        -1.0793
     10 P1         -0.3997    0.3439    5.0390 P.3       1 <0>         2.3039
     11 O1         -1.8169    0.9108    4.7997 O.2       1 <0>        -1.0711
     12 C8         -0.3722   -0.5802    6.6101 C.3       1 <0>        -0.7904
     13 O2          0.6153    1.5067    5.1076 O.3       1 <0>        -1.0501
     14 P2          1.7195   -1.4417    3.9516 P.3       1 <0>         2.2421
     15 O3          1.7428   -2.2249    5.2832 O.2       1 <0>        -1.0739
     16 O4          2.0984   -2.3882    2.7907 O.3       1 <0>        -1.0919
     17 O5          2.7772   -0.2300    4.0231 O.3       1 <0>        -0.8704
     18 H1          1.0042    1.8801    0.0026 H         1 <0>         0.0904
     19 H2         -0.5455    1.8639   -0.8728 H         1 <0>         0.0885
     20 H3         -0.5286    1.8543    0.9071 H         1 <0>         0.0791
     21 H4         -0.0059   -0.1732   -2.1379 H         1 <0>         0.1612
     22 H5          0.0281   -2.6581   -2.0711 H         1 <0>         0.1670
     23 H6          0.0541   -3.8072    0.1028 H         1 <0>         0.1930
     24 H7          0.0122    0.9397    2.4146 H         1 <0>         0.4377
     25 H8         -0.6687   -1.5932    3.6208 H         1 <0>         0.1152
     26 H9          0.6276   -0.9801    6.7790 H         1 <0>         0.1094
     27 H10        -0.6395    0.0875    7.4292 H         1 <0>         0.0820
     28 H11        -1.0883   -1.4006    6.5617 H         1 <0>         0.0622
     29 H12         3.6899   -0.5129    4.1719 H         1 <0>         0.4114
     30 H13         0.0448   -2.5151    2.0385 H         1 <0>         0.4424
@<TRIPOS>BOND
     1    1    2 1
     2    1   18 1
     3    1   19 1
     4    1   20 1
     5    2    7 ar
     6    2    3 ar
     7    3    4 ar
     8    3   21 1
     9    4    5 ar
    10    4   22 1
    11    5    6 ar
    12    5   23 1
    13    6    7 ar
    14    6   30 1
    15    7    8 1
    16    8    9 1
    17    8   24 1
    18    9   10 1
    19    9   14 1
    20    9   25 1
    21   10   11 2
    22   10   12 1
    23   10   13 1
    24   12   26 1
    25   12   27 1
    26   12   28 1
    27   14   15 2
    28   14   16 1
    29   14   17 1
    30   17   29 1
@<TRIPOS>MOLECULE
CHEMBL100154__2
   29    29     0     0     0
SMALL
USER_CHARGES

@<TRIPOS>ATOM
      1 C1         -0.0184    1.5028    0.0103 C.3       1 <0>        -0.1125
      2 C2          0.0021   -0.0041    0.0020 C.ar      1 <0>        -0.1755
      3 C3          0.0059   -0.6986   -1.1944 C.ar      1 <0>         0.0010
      4 C4          0.0249   -2.0863   -1.1549 C.ar      1 <0>        -0.2315
      5 C5          0.0393   -2.7279    0.0675 C.ar      1 <0>         0.1672
      6 N1          0.0348   -2.0396    1.1931 N.ar      1 <0>        -0.4710
      7 C6          0.0231   -0.7154    1.1972 C.ar      1 <0>         0.4388
      8 N2          0.0253   -0.0302    2.4066 N.pl3     1 <0>        -0.5692
      9 C7          0.0473   -0.7728    3.6692 C.3       1 <0>        -1.0747
     10 P1         -0.3997    0.3439    5.0390 P.3       1 <0>         2.3471
     11 O1         -1.8169    0.9108    4.7997 O.2       1 <0>        -1.1040
     12 C8         -0.3722   -0.5802    6.6101 C.3       1 <0>        -0.7913
     13 O2          0.6153    1.5067    5.1076 O.3       1 <0>        -1.0602
     14 P2          1.7195   -1.4417    3.9516 P.3       1 <0>         2.1454
     15 O3          2.1037   -2.4015    2.7744 O.2       1 <0>        -1.1597
     16 O4          2.7487   -0.2626    4.0212 O.3       1 <0>        -1.1167
     17 O5          1.7431   -2.2359    5.3018 O.3       1 <0>        -1.1485
     18 H1          1.0042    1.8801    0.0026 H         1 <0>         0.0876
     19 H2         -0.5455    1.8639   -0.8728 H         1 <0>         0.0799
     20 H3         -0.5286    1.8543    0.9071 H         1 <0>         0.0757
     21 H4         -0.0059   -0.1732   -2.1379 H         1 <0>         0.1503
     22 H5          0.0281   -2.6581   -2.0711 H         1 <0>         0.1554
     23 H6          0.0541   -3.8072    0.1028 H         1 <0>         0.1822
     24 H7          0.0122    0.9397    2.4146 H         1 <0>         0.4308
     25 H8         -0.6687   -1.5932    3.6208 H         1 <0>         0.0782
     26 H9          0.6276   -0.9801    6.7790 H         1 <0>         0.1180
     27 H10        -0.6395    0.0875    7.4292 H         1 <0>         0.0675
     28 H11        -1.0883   -1.4006    6.5617 H         1 <0>         0.0493
     29 H12         0.0448   -2.5151    2.0385 H         1 <0>         0.4403
@<TRIPOS>BOND
     1    1    2 1
     2    1   18 1
     3    1   19 1
     4    1   20 1
     5    2    7 ar
     6    2    3 ar
     7    3    4 ar
     8    3   21 1
     9    4    5 ar
    10    4   22 1
    11    5    6 ar
    12    5   23 1
    13    6    7 ar
    14    6   29 1
    15    7    8 1
    16    8    9 1
    17    8   24 1
    18    9   10 1
    19    9   14 1
    20    9   25 1
    21   10   11 2
    22   10   12 1
    23   10   13 1
    24   12   26 1
    25   12   27 1
    26   12   28 1
    27   14   15 2
    28   14   16 1
    29   14   17 1
@<TRIPOS>MOLECULE
CHEMBL100154__3
   30    30     0     0     0
SMALL
USER_CHARGES

@<TRIPOS>ATOM
      1 C1         -0.0184    1.5028    0.0103 C.3       1 <0>        -0.1180
      2 C2          0.0021   -0.0041    0.0020 C.ar      1 <0>        -0.1667
      3 C3          0.0059   -0.6986   -1.1944 C.ar      1 <0>         0.0119
      4 C4          0.0249   -2.0863   -1.1549 C.ar      1 <0>        -0.2021
      5 C5          0.0393   -2.7279    0.0675 C.ar      1 <0>         0.1599
      6 N1          0.0348   -2.0396    1.1931 N.ar      1 <0>        -0.4731
      7 C6          0.0231   -0.7154    1.1972 C.ar      1 <0>         0.4429
      8 N2          0.0253   -0.0302    2.4066 N.pl3     1 <0>        -0.6132
      9 C7          0.0473   -0.7728    3.6692 C.3       1 <0>        -1.0793
     10 P1         -0.3997    0.3439    5.0390 P.3       1 <0>         2.3039
     11 O1         -1.8169    0.9108    4.7997 O.2       1 <0>        -1.0711
     12 C8         -0.3722   -0.5802    6.6101 C.3       1 <0>        -0.7904
     13 O2          0.6153    1.5067    5.1076 O.3       1 <0>        -1.0501
     14 P2          1.7195   -1.4417    3.9516 P.3       1 <0>         2.2421
     15 O3          1.7428   -2.2249    5.2832 O.2       1 <0>        -1.0739
     16 O4          2.0984   -2.3882    2.7907 O.3       1 <0>        -1.0919
     17 O5          2.7772   -0.2300    4.0231 O.3       1 <0>        -0.8704
     18 H1          1.0042    1.8801    0.0026 H         1 <0>         0.0904
     19 H2         -0.5455    1.8639   -0.8728 H         1 <0>         0.0885
     20 H3         -0.5286    1.8543    0.9071 H         1 <0>         0.0791
     21 H4         -0.0059   -0.1732   -2.1379 H         1 <0>         0.1612
     22 H5          0.0281   -2.6581   -2.0711 H         1 <0>         0.1670
     23 H6          0.0541   -3.8072    0.1028 H         1 <0>         0.1930
     24 H7          0.0122    0.9397    2.4146 H         1 <0>         0.4377
     25 H8         -0.6687   -1.5932    3.6208 H         1 <0>         0.1152
     26 H9          0.6276   -0.9801    6.7790 H         1 <0>         0.1094
     27 H10        -0.6395    0.0875    7.4292 H         1 <0>         0.0820
     28 H11        -1.0883   -1.4006    6.5617 H         1 <0>         0.0622
     29 H12         3.6899   -0.5129    4.1719 H         1 <0>         0.4114
     30 H13         0.0448   -2.5151    2.0385 H         1 <0>         0.4424
@<TRIPOS>BOND
     1    1    2 1
     2    1   18 1
     3    1   19 1
     4    1   20 1
     5    2    7 ar
     6    2    3 ar
     7    3    4 ar
     8    3   21 1
     9    4    5 ar
    10    4   22 1
    11    5    6 ar
    12    5   23 1
    13    6    7 ar
    14    6   30 1
    15    7    8 1
    16    8    9 1
    17    8   24 1
    18    9   10 1
    19    9   14 1
    20    9   25 1
    21   10   11 2
    22   10   12 1
    23   10   13 1
    24   12   26 1
    25   12   27 1
    26   12   28 1
    27   14   15 2
    28   14   16 1
    29   14   17 1
    30   17   29 1
@<TRIPOS>MOLECULE
CHEMBL100154__4
   29    29     0     0     0
SMALL
USER_CHARGES

@<TRIPOS>ATOM
      1 C1         -0.0184    1.5028    0.0103 C.3       1 <0>        -0.1133
      2 C2          0.0021   -0.0041    0.0020 C.ar      1 <0>        -0.1753
      3 C3          0.0059   -0.6986   -1.1944 C.ar      1 <0>         0.0009
      4 C4          0.0249   -2.0863   -1.1549 C.ar      1 <0>        -0.2316
      5 C5          0.0393   -2.7279    0.0675 C.ar      1 <0>         0.1668
      6 N1          0.0348   -2.0396    1.1931 N.ar      1 <0>        -0.4699
      7 C6          0.0231   -0.7154    1.1972 C.ar      1 <0>         0.4381
      8 N2          0.0253   -0.0302    2.4066 N.pl3     1 <0>        -0.5696
      9 C7          0.0473   -0.7728    3.6692 C.3       1 <0>        -1.0751
     10 P1          0.4898    0.3560    5.0305 P.3       1 <0>         2.3472
     11 O1         -0.5549    1.4908    5.1188 O.2       1 <0>        -1.0603
     12 C8          0.5173   -0.5681    6.6017 C.3       1 <0>        -0.7913
     13 O2          1.8863    0.9612    4.7645 O.3       1 <0>        -1.1039
     14 P2         -1.6004   -1.4868    3.9831 P.3       1 <0>         2.1455
     15 O3         -2.6598   -0.3361    4.0726 O.2       1 <0>        -1.1165
     16 O4         -1.9807   -2.4569    2.8132 O.3       1 <0>        -1.1591
     17 O5         -1.5768   -2.2810    5.3333 O.3       1 <0>        -1.1483
     18 H1          1.0042    1.8801    0.0026 H         1 <0>         0.0804
     19 H2         -0.5455    1.8639   -0.8728 H         1 <0>         0.0823
     20 H3         -0.5286    1.8543    0.9071 H         1 <0>         0.0812
     21 H4         -0.0059   -0.1732   -2.1379 H         1 <0>         0.1503
     22 H5          0.0281   -2.6581   -2.0711 H         1 <0>         0.1554
     23 H6          0.0541   -3.8072    0.1028 H         1 <0>         0.1821
     24 H7          0.0122    0.9397    2.4146 H         1 <0>         0.4307
     25 H8          0.7844   -1.5734    3.6070 H         1 <0>         0.0784
     26 H9          1.2544   -1.3687    6.5394 H         1 <0>         0.0493
     27 H10         0.7819    0.1068    7.4156 H         1 <0>         0.0675
     28 H11        -0.4679   -0.9951    6.7894 H         1 <0>         0.1180
     29 H12         0.0448   -2.5151    2.0385 H         1 <0>         0.4403
@<TRIPOS>BOND
     1    1    2 1
     2    1   18 1
     3    1   19 1
     4    1   20 1
     5    2    7 ar
     6    2    3 ar
     7    3    4 ar
     8    3   21 1
     9    4    5 ar
    10    4   22 1
    11    5    6 ar
    12    5   23 1
    13    6    7 ar
    14    6   29 1
    15    7    8 1
    16    8    9 1
    17    8   24 1
    18    9   10 1
    19    9   14 1
    20    9   25 1
    21   10   11 2
    22   10   12 1
    23   10   13 1
    24   12   26 1
    25   12   27 1
    26   12   28 1
    27   14   15 2
    28   14   16 1
    29   14   17 1
@<TRIPOS>MOLECULE
CHEMBL100154__5
   30    30     0     0     0
SMALL
USER_CHARGES

@<TRIPOS>ATOM
      1 C1         -0.0184    1.5028    0.0103 C.3       1 <0>        -0.1178
      2 C2          0.0021   -0.0041    0.0020 C.ar      1 <0>        -0.1665
      3 C3          0.0059   -0.6986   -1.1944 C.ar      1 <0>         0.0116
      4 C4          0.0249   -2.0863   -1.1549 C.ar      1 <0>        -0.2020
      5 C5          0.0393   -2.7279    0.0675 C.ar      1 <0>         0.1594
      6 N1          0.0348   -2.0396    1.1931 N.ar      1 <0>        -0.4725
      7 C6          0.0231   -0.7154    1.1972 C.ar      1 <0>         0.4424
      8 N2          0.0253   -0.0302    2.4066 N.pl3     1 <0>        -0.6135
      9 C7          0.0473   -0.7728    3.6692 C.3       1 <0>        -1.0794
     10 P1          0.4898    0.3560    5.0305 P.3       1 <0>         2.3040
     11 O1         -0.5549    1.4908    5.1188 O.2       1 <0>        -1.0503
     12 C8          0.5173   -0.5681    6.6017 C.3       1 <0>        -0.7904
     13 O2          1.8863    0.9612    4.7645 O.3       1 <0>        -1.0709
     14 P2         -1.6004   -1.4868    3.9831 P.3       1 <0>         2.2420
     15 O3         -1.9754   -2.4435    2.8294 O.2       1 <0>        -1.0916
     16 O4         -1.5771   -2.2701    5.3147 O.3       1 <0>        -1.0737
     17 O5         -2.6891   -0.3043    4.0751 O.3       1 <0>        -0.8704
     18 H1          1.0042    1.8801    0.0026 H         1 <0>         0.0885
     19 H2         -0.5455    1.8639   -0.8728 H         1 <0>         0.0894
     20 H3         -0.5286    1.8543    0.9071 H         1 <0>         0.0798
     21 H4         -0.0059   -0.1732   -2.1379 H         1 <0>         0.1612
     22 H5          0.0281   -2.6581   -2.0711 H         1 <0>         0.1670
     23 H6          0.0541   -3.8072    0.1028 H         1 <0>         0.1930
     24 H7          0.0122    0.9397    2.4146 H         1 <0>         0.4378
     25 H8          0.7844   -1.5734    3.6070 H         1 <0>         0.1155
     26 H9          1.2544   -1.3687    6.5394 H         1 <0>         0.0621
     27 H10         0.7819    0.1068    7.4156 H         1 <0>         0.0820
     28 H11        -0.4679   -0.9951    6.7894 H         1 <0>         0.1093
     29 H12        -3.5907   -0.6117    4.2410 H         1 <0>         0.4115
     30 H13         0.0448   -2.5151    2.0385 H         1 <0>         0.4425
@<TRIPOS>BOND
     1    1    2 1
     2    1   18 1
     3    1   19 1
     4    1   20 1
     5    2    7 ar
     6    2    3 ar
     7    3    4 ar
     8    3   21 1
     9    4    5 ar
    10    4   22 1
    11    5    6 ar
    12    5   23 1
    13    6    7 ar
    14    6   30 1
    15    7    8 1
    16    8    9 1
    17    8   24 1
    18    9   10 1
    19    9   14 1
    20    9   25 1
    21   10   11 2
    22   10   12 1
    23   10   13 1
    24   12   26 1
    25   12   27 1
    26   12   28 1
    27   14   15 2
    28   14   16 1
    29   14   17 1
    30   17   29 1
@<TRIPOS>MOLECULE
CHEMBL100154__6
   29    29     0     0     0
SMALL
USER_CHARGES

@<TRIPOS>ATOM
      1 C1         -0.0184    1.5028    0.0103 C.3       1 <0>        -0.1133
      2 C2          0.0021   -0.0041    0.0020 C.ar      1 <0>        -0.1753
      3 C3          0.0059   -0.6986   -1.1944 C.ar      1 <0>         0.0009
      4 C4          0.0249   -2.0863   -1.1549 C.ar      1 <0>        -0.2316
      5 C5          0.0393   -2.7279    0.0675 C.ar      1 <0>         0.1668
      6 N1          0.0348   -2.0396    1.1931 N.ar      1 <0>        -0.4699
      7 C6          0.0231   -0.7154    1.1972 C.ar      1 <0>         0.4381
      8 N2          0.0253   -0.0302    2.4066 N.pl3     1 <0>        -0.5696
      9 C7          0.0473   -0.7728    3.6692 C.3       1 <0>        -1.0751
     10 P1          0.4898    0.3560    5.0305 P.3       1 <0>         2.3472
     11 O1         -0.5549    1.4908    5.1188 O.2       1 <0>        -1.0603
     12 C8          0.5173   -0.5681    6.6017 C.3       1 <0>        -0.7913
     13 O2          1.8863    0.9612    4.7645 O.3       1 <0>        -1.1039
     14 P2         -1.6004   -1.4868    3.9831 P.3       1 <0>         2.1455
     15 O3         -2.6598   -0.3361    4.0726 O.2       1 <0>        -1.1165
     16 O4         -1.9807   -2.4569    2.8132 O.3       1 <0>        -1.1591
     17 O5         -1.5768   -2.2810    5.3333 O.3       1 <0>        -1.1483
     18 H1          1.0042    1.8801    0.0026 H         1 <0>         0.0804
     19 H2         -0.5455    1.8639   -0.8728 H         1 <0>         0.0823
     20 H3         -0.5286    1.8543    0.9071 H         1 <0>         0.0812
     21 H4         -0.0059   -0.1732   -2.1379 H         1 <0>         0.1503
     22 H5          0.0281   -2.6581   -2.0711 H         1 <0>         0.1554
     23 H6          0.0541   -3.8072    0.1028 H         1 <0>         0.1821
     24 H7          0.0122    0.9397    2.4146 H         1 <0>         0.4307
     25 H8          0.7844   -1.5734    3.6070 H         1 <0>         0.0784
     26 H9          1.2544   -1.3687    6.5394 H         1 <0>         0.0493
     27 H10         0.7819    0.1068    7.4156 H         1 <0>         0.0675
     28 H11        -0.4679   -0.9951    6.7894 H         1 <0>         0.1180
     29 H12         0.0448   -2.5151    2.0385 H         1 <0>         0.4403
@<TRIPOS>BOND
     1    1    2 1
     2    1   18 1
     3    1   19 1
     4    1   20 1
     5    2    7 ar
     6    2    3 ar
     7    3    4 ar
     8    3   21 1
     9    4    5 ar
    10    4   22 1
    11    5    6 ar
    12    5   23 1
    13    6    7 ar
    14    6   29 1
    15    7    8 1
    16    8    9 1
    17    8   24 1
    18    9   10 1
    19    9   14 1
    20    9   25 1
    21   10   11 2
    22   10   12 1
    23   10   13 1
    24   12   26 1
    25   12   27 1
    26   12   28 1
    27   14   15 2
    28   14   16 1
    29   14   17 1
@<TRIPOS>MOLECULE
CHEMBL100154__7
   30    30     0     0     0
SMALL
USER_CHARGES

@<TRIPOS>ATOM
      1 C1         -0.0184    1.5028    0.0103 C.3       1 <0>        -0.1178
      2 C2          0.0021   -0.0041    0.0020 C.ar      1 <0>        -0.1665
      3 C3          0.0059   -0.6986   -1.1944 C.ar      1 <0>         0.0116
      4 C4          0.0249   -2.0863   -1.1549 C.ar      1 <0>        -0.2020
      5 C5          0.0393   -2.7279    0.0675 C.ar      1 <0>         0.1594
      6 N1          0.0348   -2.0396    1.1931 N.ar      1 <0>        -0.4725
      7 C6          0.0231   -0.7154    1.1972 C.ar      1 <0>         0.4424
      8 N2          0.0253   -0.0302    2.4066 N.pl3     1 <0>        -0.6135
      9 C7          0.0473   -0.7728    3.6692 C.3       1 <0>        -1.0794
     10 P1          0.4898    0.3560    5.0305 P.3       1 <0>         2.3040
     11 O1         -0.5549    1.4908    5.1188 O.2       1 <0>        -1.0503
     12 C8          0.5173   -0.5681    6.6017 C.3       1 <0>        -0.7904
     13 O2          1.8863    0.9612    4.7645 O.3       1 <0>        -1.0709
     14 P2         -1.6004   -1.4868    3.9831 P.3       1 <0>         2.2420
     15 O3         -1.9754   -2.4435    2.8294 O.2       1 <0>        -1.0916
     16 O4         -1.5771   -2.2701    5.3147 O.3       1 <0>        -1.0737
     17 O5         -2.6891   -0.3043    4.0751 O.3       1 <0>        -0.8704
     18 H1          1.0042    1.8801    0.0026 H         1 <0>         0.0885
     19 H2         -0.5455    1.8639   -0.8728 H         1 <0>         0.0894
     20 H3         -0.5286    1.8543    0.9071 H         1 <0>         0.0798
     21 H4         -0.0059   -0.1732   -2.1379 H         1 <0>         0.1612
     22 H5          0.0281   -2.6581   -2.0711 H         1 <0>         0.1670
     23 H6          0.0541   -3.8072    0.1028 H         1 <0>         0.1930
     24 H7          0.0122    0.9397    2.4146 H         1 <0>         0.4378
     25 H8          0.7844   -1.5734    3.6070 H         1 <0>         0.1155
     26 H9          1.2544   -1.3687    6.5394 H         1 <0>         0.0621
     27 H10         0.7819    0.1068    7.4156 H         1 <0>         0.0820
     28 H11        -0.4679   -0.9951    6.7894 H         1 <0>         0.1093
     29 H12        -3.5907   -0.6117    4.2410 H         1 <0>         0.4115
     30 H13         0.0448   -2.5151    2.0385 H         1 <0>         0.4425
@<TRIPOS>BOND
     1    1    2 1
     2    1   18 1
     3    1   19 1
     4    1   20 1
     5    2    7 ar
     6    2    3 ar
     7    3    4 ar
     8    3   21 1
     9    4    5 ar
    10    4   22 1
    11    5    6 ar
    12    5   23 1
    13    6    7 ar
    14    6   30 1
    15    7    8 1
    16    8    9 1
    17    8   24 1
    18    9   10 1
    19    9   14 1
    20    9   25 1
    21   10   11 2
    22   10   12 1
    23   10   13 1
    24   12   26 1
    25   12   27 1
    26   12   28 1
    27   14   15 2
    28   14   16 1
    29   14   17 1
    30   17   29 1
@<TRIPOS>MOLECULE
CHEMBL99369
   24    24     0     0     0
SMALL
USER_CHARGES

@<TRIPOS>ATOM
      1 C1          0.2853    1.4656    0.2392 C.ar      1 <0>        -0.0784
      2 C2          1.5455    2.0431    0.2045 C.ar      1 <0>        -0.2125
      3 C3          2.6568    1.2287    0.0987 C.ar      1 <0>         0.0915
      4 N1          2.5285   -0.0821    0.0308 N.ar      1 <0>        -0.4749
      5 C4          1.3464   -0.6656    0.0609 C.ar      1 <0>         0.1928
      6 C5          0.1902    0.0845    0.1659 C.ar      1 <0>        -0.1481
      7 C6          1.2550   -2.1676   -0.0205 C.3       1 <0>        -0.0098
      8 C7          1.9701   -2.6545   -1.2824 C.3       1 <0>        -1.2680
      9 P1          2.0094   -4.4770   -1.2938 P.3       1 <0>         2.2203
     10 O1          2.6580   -4.9937    0.0354 O.2       1 <0>        -1.2019
     11 O2          0.5483   -5.0301   -1.4114 O.3       1 <0>        -1.1644
     12 O3          2.8556   -4.9735   -2.5152 O.3       1 <0>        -1.1885
     13 P2          1.0779   -2.0567   -2.7554 P.3       1 <0>         2.2898
     14 O4         -0.3672   -2.6030   -2.7392 O.2       1 <0>        -1.1013
     15 O5          1.0446   -0.5120   -2.7458 O.3       1 <0>        -1.1324
     16 O6          1.8304   -2.5689   -4.0833 O.3       1 <0>        -0.8853
     17 H1         -0.6008    2.0769    0.3258 H         1 <0>         0.1147
     18 H2          1.6570    3.1160    0.2591 H         1 <0>         0.1098
     19 H3          3.6418    1.6707    0.0711 H         1 <0>         0.1311
     20 H4         -0.7751   -0.3993    0.1905 H         1 <0>         0.1265
     21 H5          1.7270   -2.6085    0.8576 H         1 <0>         0.0628
     22 H6          0.2074   -2.4663   -0.0584 H         1 <0>         0.0768
     23 H7          2.9896   -2.2690   -1.2939 H         1 <0>         0.0694
     24 H8          1.4097   -2.2875   -4.9072 H         1 <0>         0.3802
@<TRIPOS>BOND
     1    1    6 ar
     2    1    2 ar
     3    1   17 1
     4    2    3 ar
     5    2   18 1
     6    3    4 ar
     7    3   19 1
     8    4    5 ar
     9    5    6 ar
    10    5    7 1
    11    6   20 1
    12    7    8 1
    13    7   21 1
    14    7   22 1
    15    8    9 1
    16    8   13 1
    17    8   23 1
    18    9   10 2
    19    9   11 1
    20    9   12 1
    21   13   14 2
    22   13   15 1
    23   13   16 1
    24   16   24 1
@<TRIPOS>MOLECULE
CHEMBL99369__1
   25    25     0     0     0
SMALL
USER_CHARGES

@<TRIPOS>ATOM
      1 C1         -0.0167    1.3821    0.0096 C.ar      1 <0>        -0.0728
      2 C2          1.1937    2.0586    0.0017 C.ar      1 <0>        -0.1958
      3 C3          2.3701    1.3338   -0.0134 C.ar      1 <0>         0.1012
      4 N1          2.3500    0.0151   -0.0207 N.ar      1 <0>        -0.4707
      5 C4          1.2181   -0.6611   -0.0136 C.ar      1 <0>         0.1739
      6 C5          0.0021   -0.0041    0.0020 C.ar      1 <0>        -0.1559
      7 C6          1.2505   -2.1677   -0.0230 C.3       1 <0>        -0.0193
      8 C7          2.0769   -2.6526   -1.2158 C.3       1 <0>        -1.2766
      9 P1          2.2408   -4.4668   -1.1443 P.3       1 <0>         2.2748
     10 O1          2.9478   -4.8686    0.1694 O.2       1 <0>        -1.1168
     11 O2          0.8382   -5.1129   -1.1927 O.3       1 <0>        -1.0971
     12 O3          3.1104   -4.9770   -2.3995 O.3       1 <0>        -0.8841
     13 P2          1.2427   -2.1785   -2.7659 P.3       1 <0>         2.2701
     14 O4          1.1039   -0.6409   -2.8265 O.2       1 <0>        -1.1024
     15 O5          2.0773   -2.6681   -3.9704 O.3       1 <0>        -1.1045
     16 O6         -0.2188   -2.8518   -2.8164 O.3       1 <0>        -0.8835
     17 H1         -0.9518    1.9222    0.0259 H         1 <0>         0.1209
     18 H2          1.2167    3.1384    0.0069 H         1 <0>         0.1186
     19 H3          3.3170    1.8532   -0.0197 H         1 <0>         0.1394
     20 H4         -0.9217   -0.5635    0.0082 H         1 <0>         0.1246
     21 H5          1.7018   -2.5272    0.9018 H         1 <0>         0.0741
     22 H6          0.2340   -2.5525   -0.1048 H         1 <0>         0.0768
     23 H7          3.0664   -2.1968   -1.1816 H         1 <0>         0.1129
     24 H8          3.2383   -5.9352   -2.4258 H         1 <0>         0.3969
     25 H9         -0.7211   -2.6419   -3.6157 H         1 <0>         0.3954
@<TRIPOS>BOND
     1    1    6 ar
     2    1    2 ar
     3    1   17 1
     4    2    3 ar
     5    2   18 1
     6    3    4 ar
     7    3   19 1
     8    4    5 ar
     9    5    6 ar
    10    5    7 1
    11    6   20 1
    12    7    8 1
    13    7   21 1
    14    7   22 1
    15    8    9 1
    16    8   13 1
    17    8   23 1
    18    9   10 2
    19    9   11 1
    20    9   12 1
    21   12   24 1
    22   13   14 2
    23   13   15 1
    24   13   16 1
    25   16   25 1
@<TRIPOS>MOLECULE
CHEMBL417549
   42    41     0     0     0
SMALL
USER_CHARGES

@<TRIPOS>ATOM
      1 C1          0.7136    0.1053    2.1165 C.3       1 <0>        -0.1529
      2 C2          0.6334   -1.3843    1.7764 C.3       1 <0>        -0.1256
      3 C3          1.3054   -1.6357    0.4250 C.3       1 <0>        -0.1217
      4 C4          1.2252   -3.1253    0.0849 C.3       1 <0>        -0.1197
      5 C5          1.8971   -3.3767   -1.2665 C.3       1 <0>        -0.1215
      6 C6          1.8169   -4.8663   -1.6066 C.3       1 <0>        -0.1177
      7 C7          2.4888   -5.1177   -2.9580 C.3       1 <0>        -0.1153
      8 C8          2.4086   -6.6073   -3.2981 C.3       1 <0>        -0.1428
      9 C9          3.0806   -6.8587   -4.6495 C.3       1 <0>        -0.0323
     10 N1          3.0036   -8.2889   -4.9761 N.4       1 <0>        -0.4305
     11 C10         3.5287   -8.5110   -6.3299 C.3       1 <0>        -1.1469
     12 P1          5.3122   -8.1349   -6.3592 P.3       1 <0>         2.1288
     13 O1          5.5271   -6.6032   -6.1100 O.2       1 <0>        -1.1451
     14 O2          6.0370   -8.9533   -5.2369 O.3       1 <0>        -1.1217
     15 O3          5.9054   -8.5251   -7.7558 O.3       1 <0>        -1.1260
     16 P2          3.2667  -10.2513   -6.8054 P.3       1 <0>         2.2708
     17 O4          4.0040  -11.1739   -5.8093 O.2       1 <0>        -1.0699
     18 O5          1.7551  -10.5700   -6.7806 O.3       1 <0>        -1.1107
     19 O6          3.8422  -10.4947   -8.2892 O.3       1 <0>        -0.8693
     20 H1          1.7588    0.4104    2.1680 H         1 <0>         0.0534
     21 H2          0.2043    0.6821    1.3446 H         1 <0>         0.0523
     22 H3          0.2349    0.2844    3.0792 H         1 <0>         0.0506
     23 H4          1.1428   -1.9612    2.5483 H         1 <0>         0.0602
     24 H5         -0.4117   -1.6895    1.7249 H         1 <0>         0.0589
     25 H6          0.7960   -1.0589   -0.3469 H         1 <0>         0.0598
     26 H7          2.3505   -1.3306    0.4765 H         1 <0>         0.0619
     27 H8          1.7345   -3.7022    0.8568 H         1 <0>         0.0611
     28 H9          0.1800   -3.4305    0.0334 H         1 <0>         0.0587
     29 H10         1.3878   -2.7999   -2.0384 H         1 <0>         0.0605
     30 H11         2.9422   -3.0716   -1.2150 H         1 <0>         0.0649
     31 H12         2.3262   -5.4432   -0.8347 H         1 <0>         0.0645
     32 H13         0.7718   -5.1715   -1.6581 H         1 <0>         0.0592
     33 H14         1.9795   -4.5409   -3.7299 H         1 <0>         0.0659
     34 H15         3.5340   -4.8126   -2.9065 H         1 <0>         0.0789
     35 H16         2.9180   -7.1842   -2.5262 H         1 <0>         0.0817
     36 H17         1.3635   -6.9125   -3.3496 H         1 <0>         0.0685
     37 H18         2.5712   -6.2819   -5.4214 H         1 <0>         0.1025
     38 H19         4.1257   -6.5536   -4.5980 H         1 <0>         0.1714
     39 H20         3.5515   -8.8154   -4.3122 H         1 <0>         0.4268
     40 H21         3.0085   -7.8601   -7.0327 H         1 <0>         0.1188
     41 H22         3.7365  -11.4014   -8.6082 H         1 <0>         0.4011
     42 H23         2.0421   -8.5922   -4.9343 H         1 <0>         0.3883
@<TRIPOS>BOND
     1    1    2 1
     2    1   20 1
     3    1   21 1
     4    1   22 1
     5    2    3 1
     6    2   23 1
     7    2   24 1
     8    3    4 1
     9    3   25 1
    10    3   26 1
    11    4    5 1
    12    4   27 1
    13    4   28 1
    14    5    6 1
    15    5   29 1
    16    5   30 1
    17    6    7 1
    18    6   31 1
    19    6   32 1
    20    7    8 1
    21    7   33 1
    22    7   34 1
    23    8    9 1
    24    8   35 1
    25    8   36 1
    26    9   10 1
    27    9   37 1
    28    9   38 1
    29   10   11 1
    30   10   39 1
    31   10   42 1
    32   11   12 1
    33   11   16 1
    34   11   40 1
    35   12   13 2
    36   12   14 1
    37   12   15 1
    38   16   17 2
    39   16   18 1
    40   16   19 1
    41   19   41 1
@<TRIPOS>MOLECULE
CHEMBL417549__1
   41    40     0     0     0
SMALL
USER_CHARGES

@<TRIPOS>ATOM
      1 C1          0.6034    0.0565    2.1286 C.3       1 <0>        -0.1520
      2 C2          0.5421   -1.4334    1.7862 C.3       1 <0>        -0.1256
      3 C3          1.2175   -1.6744    0.4347 C.3       1 <0>        -0.1214
      4 C4          1.1561   -3.1643    0.0923 C.3       1 <0>        -0.1195
      5 C5          1.8315   -3.4053   -1.2592 C.3       1 <0>        -0.1210
      6 C6          1.7702   -4.8952   -1.6016 C.3       1 <0>        -0.1173
      7 C7          2.4456   -5.1362   -2.9531 C.3       1 <0>        -0.1142
      8 C8          2.3843   -6.6261   -3.2955 C.3       1 <0>        -0.1427
      9 C9          3.0597   -6.8671   -4.6470 C.3       1 <0>        -0.0361
     10 N1          3.0008   -8.2976   -4.9757 N.4       1 <0>        -0.4297
     11 C10         3.5287   -8.5110   -6.3299 C.3       1 <0>        -1.1316
     12 P1          5.3072   -8.1119   -6.3587 P.3       1 <0>         2.1843
     13 O1          5.5023   -6.5778   -6.1077 O.2       1 <0>        -1.1790
     14 O2          6.0425   -8.9221   -5.2373 O.3       1 <0>        -1.1484
     15 O3          5.9054   -8.4927   -7.7557 O.3       1 <0>        -1.1388
     16 P2          3.2892  -10.2539   -6.8078 P.3       1 <0>         2.1777
     17 O4          4.1481  -11.1739   -5.8748 O.2       1 <0>        -1.1432
     18 O5          1.7756  -10.6316   -6.6639 O.3       1 <0>        -1.1908
     19 O6          3.7383  -10.4539   -8.2953 O.3       1 <0>        -1.1407
     20 H1          1.6446    0.3748    2.1809 H         1 <0>         0.0530
     21 H2          0.0871    0.6281    1.3574 H         1 <0>         0.0520
     22 H3          0.1222    0.2282    3.0915 H         1 <0>         0.0491
     23 H4          1.0584   -2.0050    2.5575 H         1 <0>         0.0600
     24 H5         -0.4991   -1.7517    1.7340 H         1 <0>         0.0587
     25 H6          0.7011   -1.1028   -0.3365 H         1 <0>         0.0596
     26 H7          2.2587   -1.3561    0.4869 H         1 <0>         0.0615
     27 H8          1.6725   -3.7359    0.8636 H         1 <0>         0.0606
     28 H9          0.1149   -3.4826    0.0401 H         1 <0>         0.0583
     29 H10         1.3152   -2.8337   -2.0305 H         1 <0>         0.0598
     30 H11         2.8727   -3.0870   -1.2070 H         1 <0>         0.0643
     31 H12         2.2866   -5.4668   -0.8303 H         1 <0>         0.0633
     32 H13         0.7290   -5.2134   -1.6538 H         1 <0>         0.0581
     33 H14         1.9292   -4.5646   -3.7244 H         1 <0>         0.0639
     34 H15         3.4868   -4.8179   -2.9009 H         1 <0>         0.0770
     35 H16         2.9006   -7.1977   -2.5243 H         1 <0>         0.0775
     36 H17         1.3431   -6.9443   -3.3477 H         1 <0>         0.0643
     37 H18         2.5433   -6.2955   -5.4183 H         1 <0>         0.0941
     38 H19         4.1009   -6.5488   -4.5948 H         1 <0>         0.1657
     39 H20         3.5553   -8.8181   -4.3127 H         1 <0>         0.4182
     40 H21         3.0002   -7.8659   -7.0318 H         1 <0>         0.0910
     41 H22         2.0432   -8.6130   -4.9345 H         1 <0>         0.3799
@<TRIPOS>BOND
     1    1    2 1
     2    1   20 1
     3    1   21 1
     4    1   22 1
     5    2    3 1
     6    2   23 1
     7    2   24 1
     8    3    4 1
     9    3   25 1
    10    3   26 1
    11    4    5 1
    12    4   27 1
    13    4   28 1
    14    5    6 1
    15    5   29 1
    16    5   30 1
    17    6    7 1
    18    6   31 1
    19    6   32 1
    20    7    8 1
    21    7   33 1
    22    7   34 1
    23    8    9 1
    24    8   35 1
    25    8   36 1
    26    9   10 1
    27    9   37 1
    28    9   38 1
    29   10   11 1
    30   10   39 1
    31   10   41 1
    32   11   12 1
    33   11   16 1
    34   11   40 1
    35   12   13 2
    36   12   14 1
    37   12   15 1
    38   16   17 2
    39   16   18 1
    40   16   19 1
@<TRIPOS>MOLECULE
CHEMBL100483
   23    23     0     0     0
SMALL
USER_CHARGES

@<TRIPOS>ATOM
      1 C1         -0.0168    1.3849    0.0097 C.ar      1 <0>        -0.0361
      2 C2          1.1899    2.0614    0.0018 C.ar      1 <0>        -0.1448
      3 C3          2.3743    1.3323   -0.0135 C.ar      1 <0>         0.4235
      4 N1          2.3510    0.0084   -0.0208 N.ar      1 <0>        -0.5647
      5 C4          1.2157   -0.6638   -0.0136 C.ar      1 <0>         0.1636
      6 C5          0.0021   -0.0041    0.0020 C.ar      1 <0>        -0.2388
      7 Br1        -1.6167   -0.9816    0.0128 Br        1 <0>        -0.1100
      8 N2          3.5940    1.9999   -0.0215 N.pl3     1 <0>        -0.6083
      9 C6          3.6276    3.4645   -0.0140 C.3       1 <0>        -1.0383
     10 P1          3.2126    4.0733    1.6535 P.3       1 <0>         2.1804
     11 O1          1.7780    3.5817    2.0469 O.2       1 <0>        -1.1651
     12 O2          4.2548    3.5217    2.6851 O.3       1 <0>        -1.1489
     13 O3          3.2484    5.6395    1.6616 O.3       1 <0>        -1.1693
     14 P2          5.2969    4.0365   -0.4717 P.3       1 <0>         2.2840
     15 O4          6.3246    3.4926    0.5456 O.2       1 <0>        -1.0858
     16 O5          5.6486    3.5206   -1.8849 O.3       1 <0>        -1.1289
     17 O6          5.3337    5.6461   -0.4634 O.3       1 <0>        -0.8775
     18 H1         -0.9522    1.9243    0.0259 H         1 <0>         0.1209
     19 H2          1.2120    3.1412    0.0070 H         1 <0>         0.1490
     20 H3          1.2355   -1.7436   -0.0203 H         1 <0>         0.1400
     21 H4          4.4227    1.4959   -0.0321 H         1 <0>         0.4002
     22 H5          2.9025    3.8482   -0.7317 H         1 <0>         0.0656
     23 H6          6.1935    6.0210   -0.6983 H         1 <0>         0.3891
@<TRIPOS>BOND
     1    1    6 ar
     2    1    2 ar
     3    1   18 1
     4    2    3 ar
     5    2   19 1
     6    3    4 ar
     7    3    8 1
     8    4    5 ar
     9    5    6 ar
    10    5   20 1
    11    6    7 1
    12    8    9 1
    13    8   21 1
    14    9   10 1
    15    9   14 1
    16    9   22 1
    17   10   11 2
    18   10   12 1
    19   10   13 1
    20   14   15 2
    21   14   16 1
    22   14   17 1
    23   17   23 1
@<TRIPOS>MOLECULE
CHEMBL100483__1
   24    24     0     0     0
SMALL
USER_CHARGES

@<TRIPOS>ATOM
      1 C1         -0.0168    1.3849    0.0097 C.ar      1 <0>        -0.0202
      2 C2          1.1899    2.0614    0.0018 C.ar      1 <0>        -0.1637
      3 C3          2.3743    1.3323   -0.0135 C.ar      1 <0>         0.4173
      4 N1          2.3510    0.0084   -0.0208 N.ar      1 <0>        -0.5498
      5 C4          1.2157   -0.6638   -0.0136 C.ar      1 <0>         0.1667
      6 C5          0.0021   -0.0041    0.0020 C.ar      1 <0>        -0.2221
      7 Br1        -1.6167   -0.9816    0.0128 Br        1 <0>        -0.0834
      8 N2          3.5940    1.9999   -0.0215 N.pl3     1 <0>        -0.6450
      9 C6          3.6276    3.4645   -0.0140 C.3       1 <0>        -1.0364
     10 P1          3.2126    4.0733    1.6535 P.3       1 <0>         2.2475
     11 O1          3.2480    5.6178    1.6615 O.2       1 <0>        -1.0869
     12 O2          1.7978    3.5885    2.0415 O.3       1 <0>        -1.0884
     13 O3          4.2836    3.5065    2.7137 O.3       1 <0>        -0.8768
     14 P2          5.2969    4.0365   -0.4717 P.3       1 <0>         2.2550
     15 O4          6.3246    3.4926    0.5456 O.2       1 <0>        -1.0790
     16 O5          5.6486    3.5206   -1.8849 O.3       1 <0>        -1.0994
     17 O6          5.3337    5.6461   -0.4634 O.3       1 <0>        -0.8799
     18 H1         -0.9522    1.9243    0.0259 H         1 <0>         0.1311
     19 H2          1.2120    3.1412    0.0070 H         1 <0>         0.1476
     20 H3          1.2355   -1.7436   -0.0203 H         1 <0>         0.1506
     21 H4          4.4227    1.4959   -0.0321 H         1 <0>         0.4075
     22 H5          2.9025    3.8482   -0.7317 H         1 <0>         0.1048
     23 H6          4.1242    3.7908    3.6241 H         1 <0>         0.3992
     24 H7          6.1935    6.0210   -0.6983 H         1 <0>         0.4038
@<TRIPOS>BOND
     1    1    6 ar
     2    1    2 ar
     3    1   18 1
     4    2    3 ar
     5    2   19 1
     6    3    4 ar
     7    3    8 1
     8    4    5 ar
     9    5    6 ar
    10    5   20 1
    11    6    7 1
    12    8    9 1
    13    8   21 1
    14    9   10 1
    15    9   14 1
    16    9   22 1
    17   10   11 2
    18   10   12 1
    19   10   13 1
    20   13   23 1
    21   14   15 2
    22   14   16 1
    23   14   17 1
    24   17   24 1
@<TRIPOS>MOLECULE
CHEMBL408608
   31    31     0     0     0
SMALL
USER_CHARGES

@<TRIPOS>ATOM
      1 C1         -0.0187    1.5258    0.0104 C.3       1 <0>        -0.1557
      2 C2          0.0021   -0.0041    0.0020 C.3       1 <0>        -0.0739
      3 C3         -1.4352   -0.5322    0.0017 C.3       1 <0>        -0.1156
      4 C4         -1.3921   -2.0376    0.2959 C.3       1 <0>        -0.1443
      5 C5         -0.8859   -2.2367    1.7256 C.3       1 <0>         0.1010
      6 N1          0.3320   -1.4687    1.9476 N.pl3     1 <0>        -0.5875
      7 C6          0.7284   -0.4995    1.2187 C.cat     1 <0>         0.4703
      8 N2          1.8936    0.1300    1.5691 N.pl3     1 <0>        -0.5703
      9 C7          2.6407   -0.3151    2.7481 C.3       1 <0>        -1.0647
     10 P1          3.5027   -1.8757    2.3678 P.3       1 <0>         2.1420
     11 O1          2.4528   -2.9690    1.9714 O.2       1 <0>        -1.1577
     12 O2          4.4943   -1.6478    1.1765 O.3       1 <0>        -1.1231
     13 O3          4.3016   -2.3517    3.6285 O.3       1 <0>        -1.1406
     14 P2          3.8624    0.9570    3.2093 P.3       1 <0>         2.2797
     15 O4          4.8403    1.1818    2.0345 O.2       1 <0>        -1.0733
     16 O5          3.1319    2.2797    3.5316 O.3       1 <0>        -1.1166
     17 O6          4.6834    0.4679    4.5049 O.3       1 <0>        -0.8774
     18 H1          1.0039    1.9031    0.0027 H         1 <0>         0.0744
     19 H2         -0.5459    1.8868   -0.8726 H         1 <0>         0.0802
     20 H3         -0.5289    1.8773    0.9072 H         1 <0>         0.0672
     21 H4          0.5153   -0.3542   -0.8936 H         1 <0>         0.1260
     22 H5         -2.0142   -0.0233    0.7723 H         1 <0>         0.0750
     23 H6         -1.8898   -0.3609   -0.9740 H         1 <0>         0.0897
     24 H7         -2.3925   -2.4593    0.1987 H         1 <0>         0.0912
     25 H8         -0.7166   -2.5291   -0.4043 H         1 <0>         0.0876
     26 H9         -1.6519   -1.9071    2.4275 H         1 <0>         0.0776
     27 H10        -0.6792   -3.2942    1.8901 H         1 <0>         0.1078
     28 H11         2.2239    0.8705    1.0367 H         1 <0>         0.4242
     29 H12         1.9508   -0.4737    3.5769 H         1 <0>         0.0811
     30 H13         5.3526    1.0971    4.8071 H         1 <0>         0.3987
     31 H14         0.8835   -1.7128    2.7073 H         1 <0>         0.4271
@<TRIPOS>BOND
     1    1    2 1
     2    1   18 1
     3    1   19 1
     4    1   20 1
     5    2    7 1
     6    2    3 1
     7    2   21 1
     8    3    4 1
     9    3   22 1
    10    3   23 1
    11    4    5 1
    12    4   24 1
    13    4   25 1
    14    5    6 1
    15    5   26 1
    16    5   27 1
    17    6    7 2
    18    6   31 1
    19    7    8 1
    20    8    9 1
    21    8   28 1
    22    9   10 1
    23    9   14 1
    24    9   29 1
    25   10   11 2
    26   10   12 1
    27   10   13 1
    28   14   15 2
    29   14   16 1
    30   14   17 1
    31   17   30 1
@<TRIPOS>MOLECULE
CHEMBL408608__1
   32    32     0     0     0
SMALL
USER_CHARGES

@<TRIPOS>ATOM
      1 C1         -0.0187    1.5258    0.0104 C.3       1 <0>        -0.1615
      2 C2          0.0021   -0.0041    0.0020 C.3       1 <0>        -0.0744
      3 C3         -1.4352   -0.5322    0.0017 C.3       1 <0>        -0.1221
      4 C4         -1.3921   -2.0376    0.2959 C.3       1 <0>        -0.1463
      5 C5         -0.8859   -2.2367    1.7256 C.3       1 <0>         0.0909
      6 N1          0.3320   -1.4687    1.9476 N.pl3     1 <0>        -0.5802
      7 C6          0.7284   -0.4995    1.2187 C.cat     1 <0>         0.4911
      8 N2          1.8936    0.1300    1.5691 N.pl3     1 <0>        -0.6060
      9 C7          2.6407   -0.3151    2.7481 C.3       1 <0>        -1.0745
     10 P1          4.3221    0.3879    2.7030 P.3       1 <0>         2.2459
     11 O1          5.0458   -0.0895    1.4242 O.2       1 <0>        -1.0852
     12 O2          4.2355    1.9305    2.7003 O.3       1 <0>        -1.0632
     13 O3          5.1432   -0.1012    3.9987 O.3       1 <0>        -0.8784
     14 P2          1.7868    0.2482    4.2570 P.3       1 <0>         2.2343
     15 O4          0.3618   -0.3475    4.2952 O.2       1 <0>        -1.0858
     16 O5          2.5747   -0.2212    5.5003 O.3       1 <0>        -1.0610
     17 O6          1.6965    1.8557    4.2542 O.3       1 <0>        -0.8737
     18 H1          1.0039    1.9031    0.0027 H         1 <0>         0.0736
     19 H2         -0.5459    1.8868   -0.8726 H         1 <0>         0.0881
     20 H3         -0.5289    1.8773    0.9072 H         1 <0>         0.0776
     21 H4          0.5153   -0.3542   -0.8936 H         1 <0>         0.1265
     22 H5         -2.0142   -0.0233    0.7723 H         1 <0>         0.0884
     23 H6         -1.8898   -0.3609   -0.9740 H         1 <0>         0.0972
     24 H7         -2.3925   -2.4593    0.1987 H         1 <0>         0.1026
     25 H8         -0.7166   -2.5291   -0.4043 H         1 <0>         0.0789
     26 H9         -1.6519   -1.9071    2.4275 H         1 <0>         0.1105
     27 H10        -0.6792   -3.2942    1.8901 H         1 <0>         0.1021
     28 H11         2.2239    0.8705    1.0367 H         1 <0>         0.4336
     29 H12         2.7018   -1.4033    2.7500 H         1 <0>         0.1198
     30 H13         6.0487    0.2355    4.0407 H         1 <0>         0.4134
     31 H14         1.2531    2.2261    5.0296 H         1 <0>         0.4111
     32 H15         0.8835   -1.7128    2.7073 H         1 <0>         0.4266
@<TRIPOS>BOND
     1    1    2 1
     2    1   18 1
     3    1   19 1
     4    1   20 1
     5    2    7 1
     6    2    3 1
     7    2   21 1
     8    3    4 1
     9    3   22 1
    10    3   23 1
    11    4    5 1
    12    4   24 1
    13    4   25 1
    14    5    6 1
    15    5   26 1
    16    5   27 1
    17    6    7 2
    18    6   32 1
    19    7    8 1
    20    8    9 1
    21    8   28 1
    22    9   10 1
    23    9   14 1
    24    9   29 1
    25   10   11 2
    26   10   12 1
    27   10   13 1
    28   13   30 1
    29   14   15 2
    30   14   16 1
    31   14   17 1
    32   17   31 1
@<TRIPOS>MOLECULE
CHEMBL408608__2
   31    31     0     0     0
SMALL
USER_CHARGES

@<TRIPOS>ATOM
      1 C1         -0.0187    1.5258    0.0104 C.3       1 <0>        -0.1557
      2 C2          0.0021   -0.0041    0.0020 C.3       1 <0>        -0.0739
      3 C3          0.7093   -0.4961   -1.2638 C.3       1 <0>        -0.1157
      4 C4          0.9834   -1.9977   -1.1060 C.3       1 <0>        -0.1443
      5 C5          1.9952   -2.1882    0.0254 C.3       1 <0>         0.1010
      6 N1          1.5820   -1.4477    1.2099 N.pl3     1 <0>        -0.5875
      7 C6          0.7284   -0.4995    1.2187 C.cat     1 <0>         0.4703
      8 N2          0.4572    0.1065    2.4170 N.pl3     1 <0>        -0.5702
      9 C7          1.1392   -0.3396    3.6344 C.3       1 <0>        -1.0648
     10 P1          0.4280   -1.9261    4.1827 P.3       1 <0>         2.1420
     11 O1         -1.0992   -1.7394    4.4783 O.2       1 <0>        -1.1231
     12 O2          0.6146   -2.9991    3.0565 O.3       1 <0>        -1.1577
     13 O3          1.1573   -2.4032    5.4846 O.3       1 <0>        -1.1406
     14 P2          0.9221    0.9089    4.9449 P.3       1 <0>         2.2798
     15 O4          1.5249    2.2534    4.4802 O.2       1 <0>        -1.1166
     16 O5         -0.5839    1.0930    5.2364 O.3       1 <0>        -1.0734
     17 O6          1.6716    0.4186    6.2828 O.3       1 <0>        -0.8774
     18 H1          1.0039    1.9031    0.0027 H         1 <0>         0.0672
     19 H2         -0.5459    1.8868   -0.8726 H         1 <0>         0.0802
     20 H3         -0.5289    1.8773    0.9072 H         1 <0>         0.0744
     21 H4         -1.0210   -0.3801    0.0130 H         1 <0>         0.1260
     22 H5          0.0707   -0.3280   -2.1310 H         1 <0>         0.0897
     23 H6          1.6508    0.0383   -1.3905 H         1 <0>         0.0750
     24 H7          0.0566   -2.5161   -0.8606 H         1 <0>         0.0876
     25 H8          1.3923   -2.3957   -2.0348 H         1 <0>         0.0912
     26 H9          2.0657   -3.2481    0.2702 H         1 <0>         0.1077
     27 H10         2.9714   -1.8294   -0.3008 H         1 <0>         0.0777
     28 H11        -0.1864    0.8310    2.4595 H         1 <0>         0.4243
     29 H12         2.2017   -0.4695    3.4288 H         1 <0>         0.0811
     30 H13         1.5977    1.0356    7.0236 H         1 <0>         0.3986
     31 H14         1.9865   -1.6943    2.0563 H         1 <0>         0.4271
@<TRIPOS>BOND
     1    1    2 1
     2    1   18 1
     3    1   19 1
     4    1   20 1
     5    2    7 1
     6    2    3 1
     7    2   21 1
     8    3    4 1
     9    3   22 1
    10    3   23 1
    11    4    5 1
    12    4   24 1
    13    4   25 1
    14    5    6 1
    15    5   26 1
    16    5   27 1
    17    6    7 2
    18    6   31 1
    19    7    8 1
    20    8    9 1
    21    8   28 1
    22    9   10 1
    23    9   14 1
    24    9   29 1
    25   10   11 2
    26   10   12 1
    27   10   13 1
    28   14   15 2
    29   14   16 1
    30   14   17 1
    31   17   30 1
@<TRIPOS>MOLECULE
CHEMBL408608__3
   32    32     0     0     0
SMALL
USER_CHARGES

@<TRIPOS>ATOM
      1 C1         -0.0187    1.5258    0.0104 C.3       1 <0>        -0.1593
      2 C2          0.0021   -0.0041    0.0020 C.3       1 <0>        -0.0764
      3 C3          0.7093   -0.4961   -1.2638 C.3       1 <0>        -0.1211
      4 C4          0.9834   -1.9977   -1.1060 C.3       1 <0>        -0.1460
      5 C5          1.9952   -2.1882    0.0254 C.3       1 <0>         0.0917
      6 N1          1.5820   -1.4477    1.2099 N.pl3     1 <0>        -0.5810
      7 C6          0.7284   -0.4995    1.2187 C.cat     1 <0>         0.4919
      8 N2          0.4572    0.1065    2.4170 N.pl3     1 <0>        -0.6059
      9 C7          1.1392   -0.3396    3.6344 C.3       1 <0>        -1.0745
     10 P1          0.9221    0.9089    4.9449 P.3       1 <0>         2.2461
     11 O1          1.5249    2.2534    4.4802 O.2       1 <0>        -1.0845
     12 O2         -0.5839    1.0930    5.2364 O.3       1 <0>        -1.0637
     13 O3          1.6716    0.4186    6.2828 O.3       1 <0>        -0.8785
     14 P2          0.4280   -1.9261    4.1827 P.3       1 <0>         2.2336
     15 O4          0.6120   -2.9842    3.0721 O.2       1 <0>        -1.0857
     16 O5          1.1473   -2.3966    5.4666 O.3       1 <0>        -1.0603
     17 O6         -1.1414   -1.7342    4.4865 O.3       1 <0>        -0.8739
     18 H1          1.0039    1.9031    0.0027 H         1 <0>         0.0717
     19 H2         -0.5459    1.8868   -0.8726 H         1 <0>         0.0882
     20 H3         -0.5289    1.8773    0.9072 H         1 <0>         0.0742
     21 H4         -1.0210   -0.3801    0.0130 H         1 <0>         0.1315
     22 H5          0.0707   -0.3280   -2.1310 H         1 <0>         0.0983
     23 H6          1.6508    0.0383   -1.3905 H         1 <0>         0.0807
     24 H7          0.0566   -2.5161   -0.8606 H         1 <0>         0.0884
     25 H8          1.3923   -2.3957   -2.0348 H         1 <0>         0.1008
     26 H9          2.0657   -3.2481    0.2702 H         1 <0>         0.1165
     27 H10         2.9714   -1.8294   -0.3008 H         1 <0>         0.0917
     28 H11        -0.1864    0.8310    2.4595 H         1 <0>         0.4336
     29 H12         2.2017   -0.4695    3.4288 H         1 <0>         0.1204
     30 H13         1.5977    1.0356    7.0236 H         1 <0>         0.4134
     31 H14        -1.5859   -2.5400    4.7836 H         1 <0>         0.4113
     32 H15         1.9865   -1.6943    2.0563 H         1 <0>         0.4268
@<TRIPOS>BOND
     1    1    2 1
     2    1   18 1
     3    1   19 1
     4    1   20 1
     5    2    7 1
     6    2    3 1
     7    2   21 1
     8    3    4 1
     9    3   22 1
    10    3   23 1
    11    4    5 1
    12    4   24 1
    13    4   25 1
    14    5    6 1
    15    5   26 1
    16    5   27 1
    17    6    7 2
    18    6   32 1
    19    7    8 1
    20    8    9 1
    21    8   28 1
    22    9   10 1
    23    9   14 1
    24    9   29 1
    25   10   11 2
    26   10   12 1
    27   10   13 1
    28   13   30 1
    29   14   15 2
    30   14   16 1
    31   14   17 1
    32   17   31 1
@<TRIPOS>MOLECULE
CHEMBL452354
   26    27     0     0     0
SMALL
USER_CHARGES

@<TRIPOS>ATOM
      1 C1         -0.0158    1.3164    0.0093 C.ar      1 <0>         0.2742
      2 N1          1.0862    2.0370    0.0026 N.ar      1 <0>        -0.4926
      3 C2          2.2748    1.4487   -0.0118 C.ar      1 <0>         0.2792
      4 C3          2.3410    0.0412   -0.0200 C.ar      1 <0>        -0.0081
      5 C4          1.1421   -0.6763   -0.0128 C.ar      1 <0>         0.2530
      6 N2          0.0021   -0.0041    0.0020 N.ar      1 <0>        -0.5349
      7 Cl1         1.1477   -2.4123   -0.0219 Cl        1 <0>        -0.0383
      8 N3          3.6539   -0.2947   -0.0343 N.2       1 <0>        -0.5072
      9 C5          4.3780    0.7866   -0.0354 C.2       1 <0>         0.3954
     10 N4          3.5749    1.8874   -0.0219 N.pl3     1 <0>        -0.4447
     11 C6          4.0184    3.2836   -0.0194 C.3       1 <0>         0.1751
     12 C7          4.0664    3.8009    1.4197 C.3       1 <0>        -1.2920
     13 P1          5.3404    2.8886    2.3512 P.3       1 <0>         2.2013
     14 O1          4.9902    1.3616    2.3566 O.2       1 <0>        -1.1678
     15 O2          6.7364    3.1018    1.6728 O.3       1 <0>        -1.1559
     16 O3          5.3896    3.4183    3.8248 O.3       1 <0>        -1.1765
     17 P2          4.4739    5.5778    1.4135 P.3       1 <0>         2.3036
     18 O4          5.8505    5.7881    0.7445 O.2       1 <0>        -1.0971
     19 O5          3.3941    6.3510    0.6240 O.3       1 <0>        -1.1378
     20 O6          4.5243    6.1221    2.9278 O.3       1 <0>        -0.8809
     21 H1         -0.9691    1.8238    0.0257 H         1 <0>         0.1972
     22 H2          5.4578    0.8083   -0.0450 H         1 <0>         0.2254
     23 H3          5.0120    3.3501   -0.4627 H         1 <0>         0.1034
     24 H4          3.3206    3.8875   -0.5995 H         1 <0>         0.0703
     25 H5          3.0951    3.6525    1.8917 H         1 <0>         0.0702
     26 H6          4.7363    7.0628    3.0008 H         1 <0>         0.3855
@<TRIPOS>BOND
     1    1    6 ar
     2    1    2 ar
     3    1   21 1
     4    2    3 ar
     5    3   10 1
     6    3    4 ar
     7    4    5 ar
     8    4    8 1
     9    5    6 ar
    10    5    7 1
    11    8    9 2
    12    9   10 1
    13    9   22 1
    14   10   11 1
    15   11   12 1
    16   11   23 1
    17   11   24 1
    18   12   13 1
    19   12   17 1
    20   12   25 1
    21   13   14 2
    22   13   15 1
    23   13   16 1
    24   17   18 2
    25   17   19 1
    26   17   20 1
    27   20   26 1
@<TRIPOS>MOLECULE
CHEMBL452354__1
   27    28     0     0     0
SMALL
USER_CHARGES

@<TRIPOS>ATOM
      1 C1         -0.0158    1.3164    0.0093 C.ar      1 <0>         0.3031
      2 N1          1.0862    2.0370    0.0026 N.ar      1 <0>        -0.4954
      3 C2          2.2748    1.4487   -0.0118 C.ar      1 <0>         0.2903
      4 C3          2.3410    0.0412   -0.0200 C.ar      1 <0>        -0.0236
      5 C4          1.1421   -0.6763   -0.0128 C.ar      1 <0>         0.2754
      6 N2          0.0021   -0.0041    0.0020 N.ar      1 <0>        -0.5265
      7 Cl1         1.1477   -2.4123   -0.0219 Cl        1 <0>        -0.0176
      8 N3          3.6539   -0.2947   -0.0343 N.2       1 <0>        -0.4740
      9 C5          4.3780    0.7866   -0.0354 C.2       1 <0>         0.3281
     10 N4          3.5749    1.8874   -0.0219 N.pl3     1 <0>        -0.4568
     11 C6          4.0184    3.2836   -0.0194 C.3       1 <0>         0.1595
     12 C7          4.0664    3.8009    1.4197 C.3       1 <0>        -1.2987
     13 P1          5.3404    2.8886    2.3512 P.3       1 <0>         2.2568
     14 O1          5.6568    3.6408    3.6631 O.2       1 <0>        -1.0855
     15 O2          4.8206    1.4718    2.6825 O.3       1 <0>        -1.0956
     16 O3          6.6776    2.7753    1.4617 O.3       1 <0>        -0.8911
     17 P2          4.4739    5.5778    1.4135 P.3       1 <0>         2.2877
     18 O4          5.8505    5.7881    0.7445 O.2       1 <0>        -1.0978
     19 O5          3.3941    6.3510    0.6240 O.3       1 <0>        -1.1120
     20 O6          4.5243    6.1221    2.9278 O.3       1 <0>        -0.8780
     21 H1         -0.9691    1.8238    0.0257 H         1 <0>         0.2074
     22 H2          5.4578    0.8083   -0.0450 H         1 <0>         0.2239
     23 H3          5.0120    3.3501   -0.4627 H         1 <0>         0.1081
     24 H4          3.3206    3.8875   -0.5995 H         1 <0>         0.0959
     25 H5          3.0951    3.6525    1.8917 H         1 <0>         0.1132
     26 H6          7.3997    2.3006    1.8957 H         1 <0>         0.4041
     27 H7          4.7363    7.0628    3.0008 H         1 <0>         0.3989
@<TRIPOS>BOND
     1    1    6 ar
     2    1    2 ar
     3    1   21 1
     4    2    3 ar
     5    3   10 1
     6    3    4 ar
     7    4    5 ar
     8    4    8 1
     9    5    6 ar
    10    5    7 1
    11    8    9 2
    12    9   10 1
    13    9   22 1
    14   10   11 1
    15   11   12 1
    16   11   23 1
    17   11   24 1
    18   12   13 1
    19   12   17 1
    20   12   25 1
    21   13   14 2
    22   13   15 1
    23   13   16 1
    24   16   26 1
    25   17   18 2
    26   17   19 1
    27   17   20 1
    28   20   27 1
@<TRIPOS>MOLECULE
CHEMBL437758
   24    24     0     0     0
SMALL
USER_CHARGES

@<TRIPOS>ATOM
      1 C1         -0.0167    1.3776    0.0096 C.ar      1 <0>        -0.2040
      2 C2          1.1849    2.0698    0.0019 C.ar      1 <0>         0.0717
      3 C3          2.3651    1.3426   -0.0133 C.ar      1 <0>        -0.1312
      4 C4          2.3054   -0.0383   -0.0202 C.ar      1 <0>         0.0915
      5 N1          1.1443   -0.6632   -0.0129 N.ar      1 <0>        -0.5330
      6 C5          0.0021   -0.0041    0.0020 C.ar      1 <0>         0.0710
      7 C6          3.6964    2.0488   -0.0227 C.3       1 <0>        -0.0618
      8 C7          4.1610    2.2805    1.4165 C.3       1 <0>        -1.0473
      9 F1          4.2907    1.0496    2.0686 F         1 <0>        -0.1982
     10 P1          2.9351    3.3063    2.2930 P.3       1 <0>         2.1889
     11 O1          2.8827    4.7296    1.6402 O.2       1 <0>        -1.1600
     12 O2          1.5238    2.6335    2.1929 O.3       1 <0>        -1.1285
     13 O3          3.3454    3.4375    3.7993 O.3       1 <0>        -1.1503
     14 P2          5.7714    3.1348    1.4051 P.3       1 <0>         2.2774
     15 O4          6.2405    3.3688    2.8584 O.2       1 <0>        -1.0885
     16 O5          6.8103    2.2654    0.6622 O.3       1 <0>        -1.1252
     17 O6          5.6221    4.5514    0.6547 O.3       1 <0>        -0.8753
     18 H1         -0.9552    1.9117    0.0259 H         1 <0>         0.1083
     19 H2          1.2009    3.1496    0.0072 H         1 <0>         0.1302
     20 H3          3.2203   -0.6121   -0.0320 H         1 <0>         0.1287
     21 H4         -0.9294   -0.5505    0.0083 H         1 <0>         0.1251
     22 H5          4.4293    1.4355   -0.5468 H         1 <0>         0.0517
     23 H6          3.5953    3.0079   -0.5308 H         1 <0>         0.0717
     24 H7          6.4423    5.0617    0.6111 H         1 <0>         0.3871
@<TRIPOS>BOND
     1    1    6 ar
     2    1    2 ar
     3    1   18 1
     4    2    3 ar
     5    2   19 1
     6    3    4 ar
     7    3    7 1
     8    4    5 ar
     9    4   20 1
    10    5    6 ar
    11    6   21 1
    12    7    8 1
    13    7   22 1
    14    7   23 1
    15    8    9 1
    16    8   10 1
    17    8   14 1
    18   10   11 2
    19   10   12 1
    20   10   13 1
    21   14   15 2
    22   14   16 1
    23   14   17 1
    24   17   24 1
@<TRIPOS>MOLECULE
CHEMBL437758__1
   23    23     0     0     0
SMALL
USER_CHARGES

@<TRIPOS>ATOM
      1 C1         -0.0167    1.3776    0.0096 C.ar      1 <0>        -0.2213
      2 C2          1.1849    2.0698    0.0019 C.ar      1 <0>        -0.0882
      3 C3          2.3651    1.3426   -0.0133 C.ar      1 <0>        -0.0885
      4 C4          2.3054   -0.0383   -0.0202 C.ar      1 <0>         0.2007
      5 N1          1.1443   -0.6632   -0.0129 N.ar      1 <0>        -0.4975
      6 C5          0.0021   -0.0041    0.0020 C.ar      1 <0>         0.0554
      7 C6          3.6964    2.0488   -0.0227 C.3       1 <0>        -0.0554
      8 C7          4.1610    2.2805    1.4165 C.3       1 <0>        -1.0519
      9 F1          3.2202    3.0678    2.0892 F         1 <0>        -0.2329
     10 P1          4.3300    0.6765    2.2662 P.3       1 <0>         2.2294
     11 O1          2.9224   -0.0003    2.3889 O.2       1 <0>        -1.1760
     12 O2          5.2860   -0.2523    1.4430 O.3       1 <0>        -1.1724
     13 O3          4.9267    0.9037    3.6968 O.3       1 <0>        -1.1749
     14 P2          5.7714    3.1348    1.4051 P.3       1 <0>         2.2340
     15 O4          6.8539    2.2001    0.7656 O.2       1 <0>        -1.1723
     16 O5          5.6575    4.4526    0.5656 O.3       1 <0>        -1.2146
     17 O6          6.1867    3.4858    2.8744 O.3       1 <0>        -1.1755
     18 H1         -0.9552    1.9117    0.0259 H         1 <0>         0.0974
     19 H2          1.2009    3.1496    0.0072 H         1 <0>         0.1056
     20 H3          3.2203   -0.6121   -0.0320 H         1 <0>         0.1619
     21 H4         -0.9294   -0.5505    0.0083 H         1 <0>         0.1199
     22 H5          4.4293    1.4355   -0.5468 H         1 <0>         0.0781
     23 H6          3.5953    3.0079   -0.5308 H         1 <0>         0.0392
@<TRIPOS>BOND
     1    1    6 ar
     2    1    2 ar
     3    1   18 1
     4    2    3 ar
     5    2   19 1
     6    3    4 ar
     7    3    7 1
     8    4    5 ar
     9    4   20 1
    10    5    6 ar
    11    6   21 1
    12    7    8 1
    13    7   22 1
    14    7   23 1
    15    8    9 1
    16    8   10 1
    17    8   14 1
    18   10   11 2
    19   10   12 1
    20   10   13 1
    21   14   15 2
    22   14   16 1
    23   14   17 1
@<TRIPOS>MOLECULE
CHEMBL394759
   24    24     0     0     0
SMALL
USER_CHARGES

@<TRIPOS>ATOM
      1 C1         -0.0167    1.3776    0.0096 C.ar      1 <0>        -0.2059
      2 C2          1.1849    2.0698    0.0019 C.ar      1 <0>         0.0745
      3 C3          2.3651    1.3426   -0.0133 C.ar      1 <0>        -0.1373
      4 C4          2.3054   -0.0383   -0.0202 C.ar      1 <0>         0.1023
      5 N1          1.1443   -0.6632   -0.0129 N.ar      1 <0>        -0.5347
      6 C5          0.0021   -0.0041    0.0020 C.ar      1 <0>         0.0725
      7 C6          3.6964    2.0488   -0.0227 C.3       1 <0>        -0.0278
      8 C7          4.1610    2.2805    1.4165 C.3       1 <0>        -1.1398
      9 P1          2.9351    3.3063    2.2930 P.3       1 <0>         2.2047
     10 O1          2.8827    4.7296    1.6402 O.2       1 <0>        -1.1683
     11 O2          1.5238    2.6335    2.1928 O.3       1 <0>        -1.1282
     12 O3          3.3454    3.4375    3.7993 O.3       1 <0>        -1.1487
     13 P2          5.7714    3.1348    1.4051 P.3       1 <0>         2.2949
     14 O4          6.2405    3.3688    2.8584 O.2       1 <0>        -1.0878
     15 O5          6.8103    2.2654    0.6622 O.3       1 <0>        -1.1233
     16 O6          5.6221    4.5514    0.6547 O.3       1 <0>        -0.8803
     17 Br1         4.3432    0.5507    2.3328 Br        1 <0>        -0.1590
     18 H1         -0.9552    1.9117    0.0259 H         1 <0>         0.1058
     19 H2          1.2009    3.1496    0.0072 H         1 <0>         0.1279
     20 H3          3.2203   -0.6121   -0.0320 H         1 <0>         0.1298
     21 H4         -0.9294   -0.5505    0.0083 H         1 <0>         0.1226
     22 H5          4.4293    1.4355   -0.5468 H         1 <0>         0.0520
     23 H6          3.5953    3.0079   -0.5308 H         1 <0>         0.0683
     24 H7          6.4423    5.0617    0.6111 H         1 <0>         0.3858
@<TRIPOS>BOND
     1    1    6 ar
     2    1    2 ar
     3    1   18 1
     4    2    3 ar
     5    2   19 1
     6    3    4 ar
     7    3    7 1
     8    4    5 ar
     9    4   20 1
    10    5    6 ar
    11    6   21 1
    12    7    8 1
    13    7   22 1
    14    7   23 1
    15    8    9 1
    16    8   13 1
    17    8   17 1
    18    9   10 2
    19    9   11 1
    20    9   12 1
    21   13   14 2
    22   13   15 1
    23   13   16 1
    24   16   24 1
@<TRIPOS>MOLECULE
CHEMBL394759__1
   23    23     0     0     0
SMALL
USER_CHARGES

@<TRIPOS>ATOM
      1 C1         -0.0167    1.3776    0.0096 C.ar      1 <0>        -0.2147
      2 C2          1.1849    2.0698    0.0019 C.ar      1 <0>         0.0725
      3 C3          2.3651    1.3426   -0.0133 C.ar      1 <0>        -0.1171
      4 C4          2.3054   -0.0383   -0.0202 C.ar      1 <0>         0.0903
      5 N1          1.1443   -0.6632   -0.0129 N.ar      1 <0>        -0.5405
      6 C5          0.0021   -0.0041    0.0020 C.ar      1 <0>         0.0585
      7 C6          3.6964    2.0488   -0.0227 C.3       1 <0>        -0.0236
      8 C7          4.1610    2.2805    1.4165 C.3       1 <0>        -1.1066
      9 P1          5.7714    3.1348    1.4051 P.3       1 <0>         2.2444
     10 O1          6.8539    2.2001    0.7656 O.2       1 <0>        -1.2091
     11 O2          5.6575    4.4527    0.5656 O.3       1 <0>        -1.1819
     12 O3          6.1867    3.4858    2.8744 O.3       1 <0>        -1.1715
     13 P2          2.9351    3.3063    2.2930 P.3       1 <0>         2.2473
     14 O4          2.8827    4.7296    1.6402 O.2       1 <0>        -1.1755
     15 O5          1.5238    2.6335    2.1929 O.3       1 <0>        -1.1499
     16 O6          3.3454    3.4375    3.7993 O.3       1 <0>        -1.1686
     17 Br1         4.3432    0.5507    2.3328 Br        1 <0>        -0.2335
     18 H1         -0.9552    1.9117    0.0259 H         1 <0>         0.0986
     19 H2          1.2009    3.1496    0.0072 H         1 <0>         0.1279
     20 H3          3.2203   -0.6121   -0.0320 H         1 <0>         0.1275
     21 H4         -0.9294   -0.5505    0.0083 H         1 <0>         0.1142
     22 H5          4.4293    1.4355   -0.5468 H         1 <0>         0.0381
     23 H6          3.5953    3.0079   -0.5308 H         1 <0>         0.0732
@<TRIPOS>BOND
     1    1    6 ar
     2    1    2 ar
     3    1   18 1
     4    2    3 ar
     5    2   19 1
     6    3    4 ar
     7    3    7 1
     8    4    5 ar
     9    4   20 1
    10    5    6 ar
    11    6   21 1
    12    7    8 1
    13    7   22 1
    14    7   23 1
    15    8    9 1
    16    8   13 1
    17    8   17 1
    18    9   10 2
    19    9   11 1
    20    9   12 1
    21   13   14 2
    22   13   15 1
    23   13   16 1
@<TRIPOS>MOLECULE
CHEMBL394758
   24    24     0     0     0
SMALL
USER_CHARGES

@<TRIPOS>ATOM
      1 C1         -0.0167    1.3776    0.0096 C.ar      1 <0>        -0.2052
      2 C2          1.1849    2.0698    0.0019 C.ar      1 <0>         0.0728
      3 C3          2.3651    1.3426   -0.0133 C.ar      1 <0>        -0.1320
      4 C4          2.3054   -0.0383   -0.0202 C.ar      1 <0>         0.0990
      5 N1          1.1443   -0.6632   -0.0129 N.ar      1 <0>        -0.5349
      6 C5          0.0021   -0.0041    0.0020 C.ar      1 <0>         0.0717
      7 C6          3.6964    2.0488   -0.0227 C.3       1 <0>        -0.0396
      8 C7          4.1610    2.2805    1.4165 C.3       1 <0>        -1.1053
      9 P1          2.9351    3.3063    2.2930 P.3       1 <0>         2.2030
     10 O1          2.8827    4.7296    1.6402 O.2       1 <0>        -1.1669
     11 O2          1.5238    2.6335    2.1929 O.3       1 <0>        -1.1295
     12 O3          3.3454    3.4375    3.7993 O.3       1 <0>        -1.1504
     13 P2          5.7714    3.1348    1.4051 P.3       1 <0>         2.2909
     14 O4          6.2405    3.3688    2.8584 O.2       1 <0>        -1.0883
     15 O5          6.8103    2.2654    0.6622 O.3       1 <0>        -1.1246
     16 O6          5.6221    4.5514    0.6547 O.3       1 <0>        -0.8797
     17 Cl1         4.3281    0.6941    2.2569 Cl        1 <0>        -0.1753
     18 H1         -0.9552    1.9117    0.0259 H         1 <0>         0.1064
     19 H2          1.2009    3.1496    0.0072 H         1 <0>         0.1284
     20 H3          3.2203   -0.6121   -0.0320 H         1 <0>         0.1280
     21 H4         -0.9294   -0.5505    0.0083 H         1 <0>         0.1231
     22 H5          4.4293    1.4355   -0.5468 H         1 <0>         0.0522
     23 H6          3.5953    3.0079   -0.5308 H         1 <0>         0.0695
     24 H7          6.4423    5.0617    0.6111 H         1 <0>         0.3865
@<TRIPOS>BOND
     1    1    6 ar
     2    1    2 ar
     3    1   18 1
     4    2    3 ar
     5    2   19 1
     6    3    4 ar
     7    3    7 1
     8    4    5 ar
     9    4   20 1
    10    5    6 ar
    11    6   21 1
    12    7    8 1
    13    7   22 1
    14    7   23 1
    15    8    9 1
    16    8   13 1
    17    8   17 1
    18    9   10 2
    19    9   11 1
    20    9   12 1
    21   13   14 2
    22   13   15 1
    23   13   16 1
    24   16   24 1
@<TRIPOS>MOLECULE
CHEMBL394758__1
   23    23     0     0     0
SMALL
USER_CHARGES

@<TRIPOS>ATOM
      1 C1         -0.0167    1.3776    0.0096 C.ar      1 <0>        -0.2141
      2 C2          1.1849    2.0698    0.0019 C.ar      1 <0>         0.0709
      3 C3          2.3651    1.3426   -0.0133 C.ar      1 <0>        -0.1115
      4 C4          2.3054   -0.0383   -0.0202 C.ar      1 <0>         0.0860
      5 N1          1.1443   -0.6632   -0.0129 N.ar      1 <0>        -0.5406
      6 C5          0.0021   -0.0041    0.0020 C.ar      1 <0>         0.0575
      7 C6          3.6964    2.0488   -0.0227 C.3       1 <0>        -0.0348
      8 C7          4.1610    2.2805    1.4165 C.3       1 <0>        -1.0803
      9 P1          5.7714    3.1348    1.4051 P.3       1 <0>         2.2433
     10 O1          6.8539    2.2001    0.7656 O.2       1 <0>        -1.2114
     11 O2          5.6575    4.4527    0.5656 O.3       1 <0>        -1.1809
     12 O3          6.1867    3.4858    2.8744 O.3       1 <0>        -1.1728
     13 P2          2.9351    3.3063    2.2930 P.3       1 <0>         2.2457
     14 O4          2.8827    4.7296    1.6402 O.2       1 <0>        -1.1743
     15 O5          1.5238    2.6335    2.1928 O.3       1 <0>        -1.1513
     16 O6          3.3454    3.4375    3.7993 O.3       1 <0>        -1.1706
     17 Cl1         4.3281    0.6941    2.2569 Cl        1 <0>        -0.2406
     18 H1         -0.9552    1.9117    0.0259 H         1 <0>         0.0991
     19 H2          1.2009    3.1496    0.0072 H         1 <0>         0.1283
     20 H3          3.2203   -0.6121   -0.0320 H         1 <0>         0.1256
     21 H4         -0.9294   -0.5505    0.0083 H         1 <0>         0.1147
     22 H5          4.4293    1.4355   -0.5468 H         1 <0>         0.0382
     23 H6          3.5953    3.0079   -0.5308 H         1 <0>         0.0738
@<TRIPOS>BOND
     1    1    6 ar
     2    1    2 ar
     3    1   18 1
     4    2    3 ar
     5    2   19 1
     6    3    4 ar
     7    3    7 1
     8    4    5 ar
     9    4   20 1
    10    5    6 ar
    11    6   21 1
    12    7    8 1
    13    7   22 1
    14    7   23 1
    15    8    9 1
    16    8   13 1
    17    8   17 1
    18    9   10 2
    19    9   11 1
    20    9   12 1
    21   13   14 2
    22   13   15 1
    23   13   16 1
@<TRIPOS>MOLECULE
CHEMBL434024
   25    25     0     0     0
SMALL
USER_CHARGES

@<TRIPOS>ATOM
      1 C1         -0.0375    1.4122   -0.0773 C.ar      1 <0>        -0.0751
      2 C2          1.1847    2.0658   -0.0317 C.ar      1 <0>        -0.2062
      3 C3          2.3470    1.3190   -0.0031 C.ar      1 <0>         0.1010
      4 N1          2.3026    0.0010   -0.0192 N.ar      1 <0>        -0.4710
      5 C4          1.1589   -0.6538   -0.0624 C.ar      1 <0>         0.1869
      6 C5         -0.0442    0.0260   -0.0925 C.ar      1 <0>        -0.1477
      7 C6          1.1637   -2.1607   -0.0796 C.3       1 <0>        -0.0591
      8 C7          1.9701   -2.6545   -1.2824 C.3       1 <0>        -1.0127
      9 O1          3.3337   -2.2515   -1.1395 O.3       1 <0>        -0.5239
     10 P1          1.8799   -4.4732   -1.3693 P.3       1 <0>         2.2173
     11 O2          2.5663   -5.0911   -0.1038 O.2       1 <0>        -1.1919
     12 O3          0.3791   -4.9197   -1.4198 O.3       1 <0>        -1.1641
     13 O4          2.6168   -4.9716   -2.6589 O.3       1 <0>        -1.1741
     14 P2          1.2818   -1.9382   -2.8110 P.3       1 <0>         2.2634
     15 O5         -0.1924   -2.3739   -2.9655 O.2       1 <0>        -1.0973
     16 O6          1.3583   -0.3968   -2.7373 O.3       1 <0>        -1.1180
     17 O7          2.1305   -2.4578   -4.0766 O.3       1 <0>        -0.8708
     18 H1         -0.9622    1.9697   -0.0960 H         1 <0>         0.1137
     19 H2          1.2276    3.1448   -0.0190 H         1 <0>         0.1092
     20 H3          3.3028    1.8204    0.0325 H         1 <0>         0.1318
     21 H4         -0.9777   -0.5160   -0.1275 H         1 <0>         0.1258
     22 H5          1.6166   -2.5331    0.8392 H         1 <0>         0.0671
     23 H6          0.1395   -2.5264   -0.1540 H         1 <0>         0.0880
     24 H7          3.4573   -1.2939   -1.0867 H         1 <0>         0.3294
     25 H8          1.8194   -2.1158   -4.9259 H         1 <0>         0.3782
@<TRIPOS>BOND
     1    1    6 ar
     2    1    2 ar
     3    1   18 1
     4    2    3 ar
     5    2   19 1
     6    3    4 ar
     7    3   20 1
     8    4    5 ar
     9    5    6 ar
    10    5    7 1
    11    6   21 1
    12    7    8 1
    13    7   22 1
    14    7   23 1
    15    8    9 1
    16    8   10 1
    17    8   14 1
    18    9   24 1
    19   10   11 2
    20   10   12 1
    21   10   13 1
    22   14   15 2
    23   14   16 1
    24   14   17 1
    25   17   25 1
@<TRIPOS>MOLECULE
CHEMBL434024__1
   26    26     0     0     0
SMALL
USER_CHARGES

@<TRIPOS>ATOM
      1 C1         -2.0450   -3.8426    0.7447 C.ar      1 <0>        -0.0701
      2 C2         -2.7172   -3.5675   -0.4365 C.ar      1 <0>        -0.1909
      3 C3         -2.0713   -2.8548   -1.4286 C.ar      1 <0>         0.1056
      4 N1         -0.8311   -2.4384   -1.2617 N.ar      1 <0>        -0.4742
      5 C4         -0.1615   -2.6816   -0.1521 C.ar      1 <0>         0.1712
      6 C5         -0.7427   -3.3882    0.8839 C.ar      1 <0>        -0.1450
      7 C6          1.2540   -2.1837   -0.0122 C.3       1 <0>        -0.0672
      8 C7          2.1091   -2.7524   -1.1463 C.3       1 <0>        -1.0191
      9 O1          1.6219   -2.2679   -2.3993 O.3       1 <0>        -0.5121
     10 P1          3.8407   -2.2277   -0.9236 P.3       1 <0>         2.2771
     11 O2          4.6841   -2.7122   -2.1240 O.2       1 <0>        -1.0893
     12 O3          3.9048   -0.6864   -0.8378 O.3       1 <0>        -1.1051
     13 O4          4.4243   -2.8654    0.4346 O.3       1 <0>        -0.8842
     14 P2          2.0179   -4.5730   -1.1219 P.3       1 <0>         2.2326
     15 O5          2.5447   -5.0969    0.2328 O.2       1 <0>        -1.0861
     16 O6          0.5504   -5.0177   -1.3106 O.3       1 <0>        -1.0887
     17 O7          2.9178   -5.1714   -2.3153 O.3       1 <0>        -0.8772
     18 H1         -2.5261   -4.3938    1.5391 H         1 <0>         0.1203
     19 H2         -3.7327   -3.9064   -0.5795 H         1 <0>         0.1176
     20 H3         -2.5880   -2.6364   -2.3515 H         1 <0>         0.1397
     21 H4         -0.1892   -3.5840    1.7904 H         1 <0>         0.1259
     22 H5          1.2627   -1.0948   -0.0615 H         1 <0>         0.0826
     23 H6          1.6598   -2.5072    0.9463 H         1 <0>         0.0821
     24 H7          0.7043   -2.5101   -2.5847 H         1 <0>         0.3585
     25 H8          5.3436   -2.6278    0.6174 H         1 <0>         0.4007
     26 H9          2.9162   -6.1373   -2.3627 H         1 <0>         0.3951
@<TRIPOS>BOND
     1    1    6 ar
     2    1    2 ar
     3    1   18 1
     4    2    3 ar
     5    2   19 1
     6    3    4 ar
     7    3   20 1
     8    4    5 ar
     9    5    6 ar
    10    5    7 1
    11    6   21 1
    12    7    8 1
    13    7   22 1
    14    7   23 1
    15    8    9 1
    16    8   10 1
    17    8   14 1
    18    9   24 1
    19   10   11 2
    20   10   12 1
    21   10   13 1
    22   13   25 1
    23   14   15 2
    24   14   16 1
    25   14   17 1
    26   17   26 1
@<TRIPOS>MOLECULE
CHEMBL56556
   26    26     0     0     0
SMALL
USER_CHARGES

@<TRIPOS>ATOM
      1 C1         -0.0167    1.3781    0.0096 C.ar      1 <0>        -0.1424
      2 C2          1.1709    2.0855    0.0021 C.ar      1 <0>        -0.1648
      3 C3          2.3773    1.4107   -0.0130 C.ar      1 <0>        -0.1127
      4 C4          2.3960    0.0285   -0.0201 C.ar      1 <0>        -0.0503
      5 C5          1.2084   -0.6789   -0.0117 C.ar      1 <0>        -0.0064
      6 C6          0.0021   -0.0041    0.0020 C.ar      1 <0>        -0.1302
      7 C7          3.7112   -0.7071   -0.0376 C.3       1 <0>        -0.0627
      8 C8          4.1714   -0.9633    1.3989 C.3       1 <0>        -1.0227
      9 O1          4.3323    0.2842    2.0771 O.3       1 <0>        -0.5120
     10 P1          2.9234   -1.9700    2.2664 P.3       1 <0>         2.2135
     11 O2          1.5927   -1.1536    2.3969 O.2       1 <0>        -1.1572
     12 O3          2.6538   -3.2818    1.4535 O.3       1 <0>        -1.1635
     13 O4          3.4514   -2.3397    3.6943 O.3       1 <0>        -1.1773
     14 P2          5.7623   -1.8532    1.3778 P.3       1 <0>         2.2726
     15 O5          5.5882   -3.2019    0.6445 O.2       1 <0>        -1.0964
     16 O6          6.8199   -1.0000    0.6426 O.3       1 <0>        -1.1348
     17 O7          6.2465   -2.1227    2.8894 O.3       1 <0>        -0.8691
     18 H1         -0.9591    1.9053    0.0259 H         1 <0>         0.0920
     19 H2          1.1563    3.1654    0.0076 H         1 <0>         0.0912
     20 H3          3.3051    1.9634   -0.0196 H         1 <0>         0.0937
     21 H4          1.2231   -1.7588   -0.0176 H         1 <0>         0.1291
     22 H5         -0.9258   -0.5567    0.0082 H         1 <0>         0.0998
     23 H6          3.5884   -1.6586   -0.5549 H         1 <0>         0.0794
     24 H7          4.4573   -0.1052   -0.5563 H         1 <0>         0.0401
     25 H8          4.9829    0.8723    1.6697 H         1 <0>         0.3107
     26 H9          7.0886   -2.5937    2.9546 H         1 <0>         0.3803
@<TRIPOS>BOND
     1    1    6 ar
     2    1    2 ar
     3    1   18 1
     4    2    3 ar
     5    2   19 1
     6    3    4 ar
     7    3   20 1
     8    4    5 ar
     9    4    7 1
    10    5    6 ar
    11    5   21 1
    12    6   22 1
    13    7    8 1
    14    7   23 1
    15    7   24 1
    16    8    9 1
    17    8   10 1
    18    8   14 1
    19    9   25 1
    20   10   11 2
    21   10   12 1
    22   10   13 1
    23   14   15 2
    24   14   16 1
    25   14   17 1
    26   17   26 1
@<TRIPOS>MOLECULE
CHEMBL56556__1
   27    27     0     0     0
SMALL
USER_CHARGES

@<TRIPOS>ATOM
      1 C1         -0.0167    1.3781    0.0096 C.ar      1 <0>        -0.1302
      2 C2          1.1709    2.0855    0.0021 C.ar      1 <0>        -0.1521
      3 C3          2.3773    1.4107   -0.0130 C.ar      1 <0>        -0.1010
      4 C4          2.3960    0.0285   -0.0201 C.ar      1 <0>        -0.0752
      5 C5          1.2084   -0.6789   -0.0117 C.ar      1 <0>        -0.0165
      6 C6          0.0021   -0.0041    0.0020 C.ar      1 <0>        -0.1240
      7 C7          3.7112   -0.7071   -0.0376 C.3       1 <0>        -0.0744
      8 C8          4.1714   -0.9633    1.3989 C.3       1 <0>        -1.0263
      9 O1          4.3323    0.2842    2.0771 O.3       1 <0>        -0.5019
     10 P1          2.9234   -1.9700    2.2664 P.3       1 <0>         2.2714
     11 O2          3.3881   -2.2287    3.7170 O.2       1 <0>        -1.0906
     12 O3          1.5751   -1.2158    2.2843 O.3       1 <0>        -1.0745
     13 O4          2.7421   -3.3754    1.5023 O.3       1 <0>        -0.8868
     14 P2          5.7623   -1.8532    1.3778 P.3       1 <0>         2.2441
     15 O5          5.5882   -3.2019    0.6445 O.2       1 <0>        -1.0871
     16 O6          6.8199   -1.0000    0.6426 O.3       1 <0>        -1.1057
     17 O7          6.2465   -2.1227    2.8894 O.3       1 <0>        -0.8740
     18 H1         -0.9591    1.9053    0.0259 H         1 <0>         0.1021
     19 H2          1.1563    3.1654    0.0076 H         1 <0>         0.1018
     20 H3          3.3051    1.9634   -0.0196 H         1 <0>         0.1019
     21 H4          1.2231   -1.7588   -0.0176 H         1 <0>         0.1086
     22 H5         -0.9258   -0.5567    0.0082 H         1 <0>         0.1064
     23 H6          3.5884   -1.6586   -0.5549 H         1 <0>         0.0778
     24 H7          4.4573   -0.1052   -0.5563 H         1 <0>         0.0659
     25 H8          4.9829    0.8723    1.6697 H         1 <0>         0.3430
     26 H9          2.0915   -3.9636    1.9097 H         1 <0>         0.4005
     27 H10         7.0886   -2.5937    2.9546 H         1 <0>         0.3966
@<TRIPOS>BOND
     1    1    6 ar
     2    1    2 ar
     3    1   18 1
     4    2    3 ar
     5    2   19 1
     6    3    4 ar
     7    3   20 1
     8    4    5 ar
     9    4    7 1
    10    5    6 ar
    11    5   21 1
    12    6   22 1
    13    7    8 1
    14    7   23 1
    15    7   24 1
    16    8    9 1
    17    8   10 1
    18    8   14 1
    19    9   25 1
    20   10   11 2
    21   10   12 1
    22   10   13 1
    23   13   26 1
    24   14   15 2
    25   14   16 1
    26   14   17 1
    27   17   27 1
@<TRIPOS>MOLECULE
CHEMBL291736
   24    24     0     0     0
SMALL
USER_CHARGES

@<TRIPOS>ATOM
      1 C1         -0.0167    1.3788    0.0096 C.ar      1 <0>        -0.0399
      2 C2          1.1946    2.0581    0.0017 C.ar      1 <0>        -0.1827
      3 C3          2.3728    1.3394   -0.0134 C.ar      1 <0>         0.0861
      4 N1          2.3606    0.0197   -0.0204 N.ar      1 <0>        -0.5275
      5 C4          1.2269   -0.6641   -0.0137 C.ar      1 <0>         0.4276
      6 C5          0.0021   -0.0041    0.0020 C.ar      1 <0>        -0.0916
      7 N2          1.2605   -2.0536   -0.0219 N.pl3     1 <0>        -0.5648
      8 C6          0.0099   -2.8167   -0.0145 C.3       1 <0>        -1.0401
      9 P1         -0.7560   -2.7440   -1.6672 P.3       1 <0>         2.1429
     10 O1         -1.0568   -1.2519   -2.0382 O.2       1 <0>        -1.1459
     11 O2          0.2239   -3.3576   -2.7244 O.3       1 <0>        -1.1269
     12 O3         -2.0934   -3.5599   -1.6593 O.3       1 <0>        -1.1405
     13 P2          0.3599   -4.5529    0.4172 P.3       1 <0>         2.2773
     14 O4          1.3263   -5.1580   -0.6254 O.2       1 <0>        -1.0746
     15 O5          1.0091   -4.6145    1.8178 O.3       1 <0>        -1.1178
     16 O6         -1.0144   -5.3914    0.4253 O.3       1 <0>        -0.8756
     17 H1         -0.9522    1.9182    0.0259 H         1 <0>         0.1508
     18 H2          1.2145    3.1379    0.0070 H         1 <0>         0.1533
     19 H3          3.3170    1.8637   -0.0200 H         1 <0>         0.1799
     20 H4         -0.9214   -0.5640    0.0078 H         1 <0>         0.1802
     21 H5          2.1120   -2.5181   -0.0325 H         1 <0>         0.4128
     22 H6         -0.6719   -2.3897    0.7210 H         1 <0>         0.0918
     23 H7         -0.9037   -6.3260    0.6476 H         1 <0>         0.3988
     24 H8          3.2030   -0.4611   -0.0310 H         1 <0>         0.4263
@<TRIPOS>BOND
     1    1    6 ar
     2    1    2 ar
     3    1   17 1
     4    2    3 ar
     5    2   18 1
     6    3    4 ar
     7    3   19 1
     8    4    5 ar
     9    4   24 1
    10    5    6 ar
    11    5    7 1
    12    6   20 1
    13    7    8 1
    14    7   21 1
    15    8    9 1
    16    8   13 1
    17    8   22 1
    18    9   10 2
    19    9   11 1
    20    9   12 1
    21   13   14 2
    22   13   15 1
    23   13   16 1
    24   16   23 1
@<TRIPOS>MOLECULE
CHEMBL291736__1
   23    23     0     0     0
SMALL
USER_CHARGES

@<TRIPOS>ATOM
      1 C1         -0.0167    1.3788    0.0096 C.ar      1 <0>        -0.0656
      2 C2          1.1946    2.0581    0.0017 C.ar      1 <0>        -0.2846
      3 C3          2.3728    1.3394   -0.0134 C.ar      1 <0>         0.1166
      4 N1          2.3606    0.0197   -0.0204 N.ar      1 <0>        -0.5751
      5 C4          1.2269   -0.6641   -0.0132 C.ar      1 <0>         0.4133
      6 C5          0.0021   -0.0041    0.0020 C.ar      1 <0>        -0.1518
      7 N2          1.2605   -2.0537   -0.0210 N.pl3     1 <0>        -0.6228
      8 C6          0.0099   -2.8167   -0.0132 C.3       1 <0>        -1.0357
      9 P1         -0.7563   -2.7445   -1.6657 P.3       1 <0>         2.1861
     10 O1         -1.0572   -1.2526   -2.0372 O.2       1 <0>        -1.1685
     11 O2          0.2234   -3.3585   -2.7229 O.3       1 <0>        -1.1521
     12 O3         -2.0937   -3.5605   -1.6573 O.3       1 <0>        -1.1732
     13 P2          0.3600   -4.5528    0.4190 P.3       1 <0>         2.2845
     14 O4          1.3262   -5.1582   -0.6235 O.2       1 <0>        -1.0875
     15 O5          1.0094   -4.6139    1.8196 O.3       1 <0>        -1.1308
     16 O6         -1.0143   -5.3913    0.4277 O.3       1 <0>        -0.8778
     17 H1         -0.9522    1.9182    0.0259 H         1 <0>         0.1091
     18 H2          1.2145    3.1379    0.0070 H         1 <0>         0.1018
     19 H3          3.3170    1.8637   -0.0200 H         1 <0>         0.1285
     20 H4         -0.9214   -0.5640    0.0078 H         1 <0>         0.1402
     21 H5          2.1120   -2.5181   -0.0316 H         1 <0>         0.3964
     22 H6         -0.6717   -2.3895    0.7224 H         1 <0>         0.0610
     23 H7         -0.9035   -6.3258    0.6503 H         1 <0>         0.3880
@<TRIPOS>BOND
     1    1    6 ar
     2    1    2 ar
     3    1   17 1
     4    2    3 ar
     5    2   18 1
     6    3    4 ar
     7    3   19 1
     8    4    5 ar
     9    5    6 ar
    10    5    7 1
    11    6   20 1
    12    7    8 1
    13    7   21 1
    14    8    9 1
    15    8   13 1
    16    8   22 1
    17    9   10 2
    18    9   11 1
    19    9   12 1
    20   13   14 2
    21   13   15 1
    22   13   16 1
    23   16   23 1
@<TRIPOS>MOLECULE
CHEMBL319144
   29    30     0     0     0
SMALL
USER_CHARGES

@<TRIPOS>ATOM
      1 C1         -0.0164    1.3560    0.0095 C.2       1 <0>        -0.0929
      2 C2          1.1943    2.0684    0.0018 C.2       1 <0>        -0.2134
      3 C3          2.3719    1.4095   -0.0130 C.2       1 <0>         0.1595
      4 N1          2.4048    0.0451   -0.0207 N.pl3     1 <0>        -0.3173
      5 C4          1.2400   -0.6776   -0.0134 C.2       1 <0>         0.2218
      6 C5          0.0021   -0.0041    0.0020 C.2       1 <0>        -0.1197
      7 N2          1.5556   -1.9650   -0.0233 N.2       1 <0>        -0.5240
      8 C6          2.8848   -2.0901   -0.0367 C.2       1 <0>         0.0062
      9 C7          3.4345   -0.8560   -0.0353 C.2       1 <0>         0.0147
     10 C8          4.9063   -0.5323   -0.0476 C.3       1 <0>        -0.0280
     11 C9          5.4176   -0.5378   -1.4897 C.3       1 <0>        -1.0245
     12 O1          5.2092   -1.8296   -2.0640 O.3       1 <0>        -0.5097
     13 P1          4.5124    0.7120   -2.4602 P.3       1 <0>         2.2109
     14 O2          3.0021    0.3066   -2.5545 O.2       1 <0>        -1.1678
     15 O3          4.6357    2.1076   -1.7590 O.3       1 <0>        -1.1595
     16 O4          5.1215    0.7960   -3.9011 O.3       1 <0>        -1.1763
     17 P2          7.1980   -0.1462   -1.5045 P.3       1 <0>         2.2733
     18 O5          7.4233    1.2505   -0.8836 O.2       1 <0>        -1.0959
     19 O6          7.9652   -1.2053   -0.6820 O.3       1 <0>        -1.1326
     20 O7          7.7361   -0.1520   -3.0220 O.3       1 <0>        -0.8692
     21 H1         -0.9574    1.8857    0.0258 H         1 <0>         0.1166
     22 H2          1.1826    3.1483    0.0073 H         1 <0>         0.1315
     23 H3          3.2969    1.9670   -0.0192 H         1 <0>         0.1855
     24 H4         -0.9225   -0.5622    0.0082 H         1 <0>         0.1235
     25 H5          3.4298   -3.0225   -0.0466 H         1 <0>         0.1549
     26 H6          5.0652    0.4531    0.3905 H         1 <0>         0.0775
     27 H7          5.4475   -1.2795    0.5327 H         1 <0>         0.0599
     28 H8          5.6627   -2.5451   -1.5977 H         1 <0>         0.3135
     29 H9          8.6783    0.0490   -3.1059 H         1 <0>         0.3814
@<TRIPOS>BOND
     1    1    6 2
     2    1    2 1
     3    1   21 1
     4    2    3 2
     5    2   22 1
     6    3    4 1
     7    3   23 1
     8    4    9 1
     9    4    5 1
    10    5    6 1
    11    5    7 2
    12    6   24 1
    13    7    8 1
    14    8    9 2
    15    8   25 1
    16    9   10 1
    17   10   11 1
    18   10   26 1
    19   10   27 1
    20   11   12 1
    21   11   13 1
    22   11   17 1
    23   12   28 1
    24   13   14 2
    25   13   15 1
    26   13   16 1
    27   17   18 2
    28   17   19 1
    29   17   20 1
    30   20   29 1
@<TRIPOS>MOLECULE
CHEMBL319144__1
   30    31     0     0     0
SMALL
USER_CHARGES

@<TRIPOS>ATOM
      1 C1         -0.0164    1.3560    0.0095 C.2       1 <0>        -0.1015
      2 C2          1.1943    2.0684    0.0018 C.2       1 <0>        -0.1805
      3 C3          2.3719    1.4095   -0.0130 C.2       1 <0>         0.1121
      4 N1          2.4048    0.0451   -0.0207 N.pl3     1 <0>        -0.3187
      5 C4          1.2400   -0.6776   -0.0134 C.2       1 <0>         0.2299
      6 C5          0.0021   -0.0041    0.0020 C.2       1 <0>        -0.0933
      7 N2          1.5556   -1.9650   -0.0233 N.2       1 <0>        -0.5112
      8 C6          2.8848   -2.0901   -0.0367 C.2       1 <0>         0.0335
      9 C7          3.4345   -0.8560   -0.0353 C.2       1 <0>        -0.0206
     10 C8          4.9063   -0.5323   -0.0476 C.3       1 <0>        -0.0358
     11 C9          5.4176   -0.5378   -1.4897 C.3       1 <0>        -1.0272
     12 O1          5.2092   -1.8296   -2.0640 O.3       1 <0>        -0.4995
     13 P1          4.5124    0.7120   -2.4602 P.3       1 <0>         2.2641
     14 O2          5.0288    0.7065   -3.9163 O.2       1 <0>        -1.0877
     15 O3          3.0035    0.3801   -2.4476 O.3       1 <0>        -1.0800
     16 O4          4.7472    2.1674   -1.8131 O.3       1 <0>        -0.8889
     17 P2          7.1980   -0.1462   -1.5045 P.3       1 <0>         2.2439
     18 O5          7.4233    1.2505   -0.8836 O.2       1 <0>        -1.0864
     19 O6          7.9652   -1.2053   -0.6820 O.3       1 <0>        -1.1030
     20 O7          7.7361   -0.1520   -3.0220 O.3       1 <0>        -0.8738
     21 H1         -0.9574    1.8857    0.0258 H         1 <0>         0.1270
     22 H2          1.1826    3.1483    0.0073 H         1 <0>         0.1378
     23 H3          3.2969    1.9670   -0.0192 H         1 <0>         0.1571
     24 H4         -0.9225   -0.5622    0.0082 H         1 <0>         0.1343
     25 H5          3.4298   -3.0225   -0.0466 H         1 <0>         0.1630
     26 H6          5.0652    0.4531    0.3905 H         1 <0>         0.0759
     27 H7          5.4475   -1.2795    0.5327 H         1 <0>         0.0848
     28 H8          5.6627   -2.5451   -1.5977 H         1 <0>         0.3455
     29 H9          4.2937    2.8830   -2.2793 H         1 <0>         0.4015
     30 H10         8.6783    0.0490   -3.1059 H         1 <0>         0.3976
@<TRIPOS>BOND
     1    1    6 2
     2    1    2 1
     3    1   21 1
     4    2    3 2
     5    2   22 1
     6    3    4 1
     7    3   23 1
     8    4    9 1
     9    4    5 1
    10    5    6 1
    11    5    7 2
    12    6   24 1
    13    7    8 1
    14    8    9 2
    15    8   25 1
    16    9   10 1
    17   10   11 1
    18   10   26 1
    19   10   27 1
    20   11   12 1
    21   11   13 1
    22   11   17 1
    23   12   28 1
    24   13   14 2
    25   13   15 1
    26   13   16 1
    27   16   29 1
    28   17   18 2
    29   17   19 1
    30   17   20 1
    31   20   30 1
@<TRIPOS>MOLECULE
CHEMBL319144__2
   30    31     0     0     0
SMALL
USER_CHARGES

@<TRIPOS>ATOM
      1 C1         -0.0164    1.3560    0.0095 C.2       1 <0>        -0.0152
      2 C2          1.1943    2.0684    0.0018 C.2       1 <0>        -0.1722
      3 C3          2.3719    1.4095   -0.0130 C.2       1 <0>         0.1800
      4 N1          2.4048    0.0451   -0.0207 N.pl3     1 <0>        -0.2876
      5 C4          1.2400   -0.6776   -0.0134 C.cat     1 <0>         0.3092
      6 C5          0.0021   -0.0041    0.0020 C.2       1 <0>        -0.1667
      7 N2          1.5556   -1.9650   -0.0233 N.pl3     1 <0>        -0.5144
      8 C6          2.8848   -2.0901   -0.0367 C.2       1 <0>         0.0152
      9 C7          3.4345   -0.8560   -0.0353 C.2       1 <0>         0.0914
     10 C8          4.9063   -0.5323   -0.0476 C.3       1 <0>        -0.0477
     11 C9          5.4176   -0.5378   -1.4897 C.3       1 <0>        -1.0261
     12 O1          5.2092   -1.8296   -2.0640 O.3       1 <0>        -0.5117
     13 P1          4.5124    0.7120   -2.4602 P.3       1 <0>         2.1995
     14 O2          3.0020    0.3066   -2.5545 O.2       1 <0>        -1.1747
     15 O3          4.6357    2.1076   -1.7590 O.3       1 <0>        -1.1469
     16 O4          5.1215    0.7960   -3.9011 O.3       1 <0>        -1.1588
     17 P2          7.1980   -0.1462   -1.5045 P.3       1 <0>         2.2723
     18 O5          7.4233    1.2505   -0.8836 O.2       1 <0>        -1.0879
     19 O6          7.9652   -1.2053   -0.6820 O.3       1 <0>        -1.1243
     20 O7          7.7361   -0.1520   -3.0220 O.3       1 <0>        -0.8704
     21 H1         -0.9574    1.8857    0.0258 H         1 <0>         0.1514
     22 H2          1.1826    3.1483    0.0073 H         1 <0>         0.1660
     23 H3          3.2969    1.9670   -0.0192 H         1 <0>         0.2182
     24 H4         -0.9225   -0.5622    0.0082 H         1 <0>         0.1542
     25 H5          3.4298   -3.0225   -0.0466 H         1 <0>         0.2064
     26 H6          5.0652    0.4531    0.3905 H         1 <0>         0.1020
     27 H7          5.4475   -1.2795    0.5327 H         1 <0>         0.0859
     28 H8          5.6627   -2.5451   -1.5977 H         1 <0>         0.3214
     29 H9          8.6783    0.0490   -3.1059 H         1 <0>         0.3893
     30 H10         0.9218   -2.6993   -0.0207 H         1 <0>         0.4422
@<TRIPOS>BOND
     1    1    6 2
     2    1    2 1
     3    1   21 1
     4    2    3 2
     5    2   22 1
     6    3    4 1
     7    3   23 1
     8    4    9 1
     9    4    5 1
    10    5    6 1
    11    5    7 2
    12    6   24 1
    13    7    8 1
    14    7   30 1
    15    8    9 2
    16    8   25 1
    17    9   10 1
    18   10   11 1
    19   10   26 1
    20   10   27 1
    21   11   12 1
    22   11   13 1
    23   11   17 1
    24   12   28 1
    25   13   14 2
    26   13   15 1
    27   13   16 1
    28   17   18 2
    29   17   19 1
    30   17   20 1
    31   20   29 1
@<TRIPOS>MOLECULE
CHEMBL98719
   30    30     0     0     0
SMALL
USER_CHARGES

@<TRIPOS>ATOM
      1 C1         -0.0184    1.5028    0.0103 C.3       1 <0>        -0.1320
      2 C2          0.0021   -0.0041    0.0020 C.ar      1 <0>        -0.1200
      3 C3          0.0059   -0.6986   -1.1944 C.ar      1 <0>        -0.0216
      4 C4          0.0249   -2.0863   -1.1549 C.ar      1 <0>        -0.1996
      5 C5          0.0393   -2.7279    0.0675 C.ar      1 <0>         0.1132
      6 N1          0.0348   -2.0396    1.1931 N.ar      1 <0>        -0.5287
      7 C6          0.0231   -0.7154    1.1972 C.ar      1 <0>         0.4359
      8 N2          0.0253   -0.0302    2.4066 N.pl3     1 <0>        -0.5891
      9 C7          0.0473   -0.7728    3.6692 C.3       1 <0>         0.1443
     10 C8          0.0451    0.2119    4.8402 C.3       1 <0>        -1.3112
     11 P1          1.5183    1.2808    4.7381 P.3       1 <0>         2.1944
     12 O1          2.8102    0.3969    4.8016 O.2       1 <0>        -1.1832
     13 O2          1.4947    2.0750    3.3879 O.3       1 <0>        -1.1445
     14 O3          1.5160    2.2891    5.9372 O.3       1 <0>        -1.1608
     15 P2         -1.4583    1.2404    4.7664 P.3       1 <0>         2.3035
     16 O4         -1.4815    2.0236    3.4348 O.2       1 <0>        -1.0972
     17 O5         -2.7068    0.3345    4.8529 O.3       1 <0>        -1.1328
     18 O6         -1.4606    2.2766    5.9986 O.3       1 <0>        -0.8781
     19 H1          1.0042    1.8801    0.0026 H         1 <0>         0.0959
     20 H2         -0.5455    1.8639   -0.8728 H         1 <0>         0.0767
     21 H3         -0.5286    1.8543    0.9071 H         1 <0>         0.1149
     22 H4         -0.0059   -0.1732   -2.1379 H         1 <0>         0.1550
     23 H5          0.0281   -2.6581   -2.0711 H         1 <0>         0.1569
     24 H6          0.0541   -3.8072    0.1028 H         1 <0>         0.1823
     25 H7          0.0122    0.9397    2.4146 H         1 <0>         0.4706
     26 H8         -0.8335   -1.4120    3.7302 H         1 <0>         0.0614
     27 H9          0.9462   -1.3878    3.7133 H         1 <0>         0.0705
     28 H10         0.0615   -0.3407    5.7796 H         1 <0>         0.0982
     29 H11        -2.2335    2.8573    6.0227 H         1 <0>         0.3927
     30 H12         0.0448   -2.5151    2.0385 H         1 <0>         0.4324
@<TRIPOS>BOND
     1    1    2 1
     2    1   19 1
     3    1   20 1
     4    1   21 1
     5    2    7 ar
     6    2    3 ar
     7    3    4 ar
     8    3   22 1
     9    4    5 ar
    10    4   23 1
    11    5    6 ar
    12    5   24 1
    13    6    7 ar
    14    6   30 1
    15    7    8 1
    16    8    9 1
    17    8   25 1
    18    9   10 1
    19    9   26 1
    20    9   27 1
    21   10   11 1
    22   10   15 1
    23   10   28 1
    24   11   12 2
    25   11   13 1
    26   11   14 1
    27   15   16 2
    28   15   17 1
    29   15   18 1
    30   18   29 1
@<TRIPOS>MOLECULE
CHEMBL98719__1
   30    30     0     0     0
SMALL
USER_CHARGES

@<TRIPOS>ATOM
      1 C1         -0.0184    1.5028    0.0103 C.3       1 <0>        -0.1065
      2 C2          0.0021   -0.0041    0.0020 C.ar      1 <0>        -0.2008
      3 C3          0.0059   -0.6986   -1.1944 C.ar      1 <0>        -0.0435
      4 C4          0.0249   -2.0863   -1.1549 C.ar      1 <0>        -0.2680
      5 C5          0.0393   -2.7279    0.0675 C.ar      1 <0>         0.1386
      6 N1          0.0348   -2.0396    1.1931 N.ar      1 <0>        -0.5531
      7 C6          0.0231   -0.7154    1.1972 C.ar      1 <0>         0.4210
      8 N2          0.0253   -0.0302    2.4066 N.pl3     1 <0>        -0.6950
      9 C7          0.0473   -0.7728    3.6692 C.3       1 <0>         0.1854
     10 C8          0.0451    0.2119    4.8402 C.3       1 <0>        -1.3118
     11 P1          1.5183    1.2808    4.7381 P.3       1 <0>         2.2758
     12 O1          2.7924    0.4092    4.8007 O.2       1 <0>        -1.1111
     13 O2          1.4950    2.0640    3.4066 O.3       1 <0>        -1.0886
     14 O3          1.5159    2.3170    5.9703 O.3       1 <0>        -0.8838
     15 P2         -1.4583    1.2404    4.7664 P.3       1 <0>         2.2753
     16 O4         -2.7068    0.3345    4.8529 O.2       1 <0>        -1.1102
     17 O5         -1.4606    2.2347    5.9489 O.3       1 <0>        -1.0956
     18 O6         -1.4825    2.0566    3.3788 O.3       1 <0>        -0.8877
     19 H1          1.0042    1.8801    0.0026 H         1 <0>         0.0714
     20 H2         -0.5455    1.8639   -0.8728 H         1 <0>         0.0539
     21 H3         -0.5286    1.8543    0.9071 H         1 <0>         0.0837
     22 H4         -0.0059   -0.1732   -2.1379 H         1 <0>         0.1213
     23 H5          0.0281   -2.6581   -2.0711 H         1 <0>         0.1161
     24 H6          0.0541   -3.8072    0.1028 H         1 <0>         0.1407
     25 H7          0.0122    0.9397    2.4146 H         1 <0>         0.4378
     26 H8         -0.8335   -1.4120    3.7302 H         1 <0>         0.0573
     27 H9          0.9462   -1.3878    3.7133 H         1 <0>         0.0572
     28 H10         0.0615   -0.3407    5.7796 H         1 <0>         0.1180
     29 H11         2.2730    2.9186    5.9799 H         1 <0>         0.3993
     30 H12        -2.2564    2.6263    3.2711 H         1 <0>         0.4030
@<TRIPOS>BOND
     1    1    2 1
     2    1   19 1
     3    1   20 1
     4    1   21 1
     5    2    7 ar
     6    2    3 ar
     7    3    4 ar
     8    3   22 1
     9    4    5 ar
    10    4   23 1
    11    5    6 ar
    12    5   24 1
    13    6    7 ar
    14    7    8 1
    15    8    9 1
    16    8   25 1
    17    9   10 1
    18    9   26 1
    19    9   27 1
    20   10   11 1
    21   10   15 1
    22   10   28 1
    23   11   12 2
    24   11   13 1
    25   11   14 1
    26   14   29 1
    27   15   16 2
    28   15   17 1
    29   15   18 1
    30   18   30 1
@<TRIPOS>MOLECULE
CHEMBL98719__2
   29    29     0     0     0
SMALL
USER_CHARGES

@<TRIPOS>ATOM
      1 C1         -0.0184    1.5028    0.0103 C.3       1 <0>        -0.1091
      2 C2          0.0021   -0.0041    0.0020 C.ar      1 <0>        -0.1989
      3 C3          0.0059   -0.6986   -1.1944 C.ar      1 <0>        -0.0484
      4 C4          0.0249   -2.0863   -1.1549 C.ar      1 <0>        -0.2978
      5 C5          0.0393   -2.7279    0.0675 C.ar      1 <0>         0.1383
      6 N1          0.0348   -2.0396    1.1931 N.ar      1 <0>        -0.5653
      7 C6          0.0231   -0.7154    1.1972 C.ar      1 <0>         0.4202
      8 N2          0.0253   -0.0302    2.4066 N.pl3     1 <0>        -0.6481
      9 C7          0.0473   -0.7728    3.6692 C.3       1 <0>         0.1988
     10 C8          0.0451    0.2119    4.8402 C.3       1 <0>        -1.3128
     11 P1          1.5183    1.2808    4.7381 P.3       1 <0>         2.2186
     12 O1          2.8102    0.3969    4.8016 O.2       1 <0>        -1.1963
     13 O2          1.4947    2.0750    3.3879 O.3       1 <0>        -1.1539
     14 O3          1.5160    2.2891    5.9372 O.3       1 <0>        -1.1805
     15 P2         -1.4583    1.2404    4.7664 P.3       1 <0>         2.3027
     16 O4         -1.4815    2.0236    3.4348 O.2       1 <0>        -1.0974
     17 O5         -2.7068    0.3345    4.8529 O.3       1 <0>        -1.1396
     18 O6         -1.4606    2.2766    5.9986 O.3       1 <0>        -0.8808
     19 H1          1.0042    1.8801    0.0026 H         1 <0>         0.0673
     20 H2         -0.5455    1.8639   -0.8728 H         1 <0>         0.0439
     21 H3         -0.5286    1.8543    0.9071 H         1 <0>         0.1009
     22 H4         -0.0059   -0.1732   -2.1379 H         1 <0>         0.1123
     23 H5          0.0281   -2.6581   -2.0711 H         1 <0>         0.1045
     24 H6          0.0541   -3.8072    0.1028 H         1 <0>         0.1300
     25 H7          0.0122    0.9397    2.4146 H         1 <0>         0.4536
     26 H8         -0.8335   -1.4120    3.7302 H         1 <0>         0.0345
     27 H9          0.9462   -1.3878    3.7133 H         1 <0>         0.0433
     28 H10         0.0615   -0.3407    5.7796 H         1 <0>         0.0759
     29 H11        -2.2335    2.8573    6.0227 H         1 <0>         0.3841
@<TRIPOS>BOND
     1    1    2 1
     2    1   19 1
     3    1   20 1
     4    1   21 1
     5    2    7 ar
     6    2    3 ar
     7    3    4 ar
     8    3   22 1
     9    4    5 ar
    10    4   23 1
    11    5    6 ar
    12    5   24 1
    13    6    7 ar
    14    7    8 1
    15    8    9 1
    16    8   25 1
    17    9   10 1
    18    9   26 1
    19    9   27 1
    20   10   11 1
    21   10   15 1
    22   10   28 1
    23   11   12 2
    24   11   13 1
    25   11   14 1
    26   15   16 2
    27   15   17 1
    28   15   18 1
    29   18   29 1
@<TRIPOS>MOLECULE
CHEMBL98719__3
   31    31     0     0     0
SMALL
USER_CHARGES

@<TRIPOS>ATOM
      1 C1         -0.0184    1.5028    0.0103 C.3       1 <0>        -0.1272
      2 C2          0.0021   -0.0041    0.0020 C.ar      1 <0>        -0.1360
      3 C3          0.0059   -0.6986   -1.1944 C.ar      1 <0>         0.0024
      4 C4          0.0249   -2.0863   -1.1549 C.ar      1 <0>        -0.1839
      5 C5          0.0393   -2.7279    0.0675 C.ar      1 <0>         0.1225
      6 N1          0.0348   -2.0396    1.1931 N.ar      1 <0>        -0.5149
      7 C6          0.0231   -0.7154    1.1972 C.ar      1 <0>         0.4493
      8 N2          0.0253   -0.0302    2.4066 N.pl3     1 <0>        -0.6519
      9 C7          0.0473   -0.7728    3.6692 C.3       1 <0>         0.1333
     10 C8          0.0451    0.2119    4.8402 C.3       1 <0>        -1.3086
     11 P1          1.5183    1.2808    4.7381 P.3       1 <0>         2.2741
     12 O1          2.7924    0.4092    4.8007 O.2       1 <0>        -1.1040
     13 O2          1.4950    2.0640    3.4066 O.3       1 <0>        -1.0872
     14 O3          1.5159    2.3170    5.9703 O.3       1 <0>        -0.8804
     15 P2         -1.4583    1.2404    4.7664 P.3       1 <0>         2.2537
     16 O4         -2.7068    0.3345    4.8529 O.2       1 <0>        -1.0968
     17 O5         -1.4606    2.2347    5.9489 O.3       1 <0>        -1.0760
     18 O6         -1.4825    2.0566    3.3788 O.3       1 <0>        -0.8964
     19 H1          1.0042    1.8801    0.0026 H         1 <0>         0.0991
     20 H2         -0.5455    1.8639   -0.8728 H         1 <0>         0.0855
     21 H3         -0.5286    1.8543    0.9071 H         1 <0>         0.0978
     22 H4         -0.0059   -0.1732   -2.1379 H         1 <0>         0.1644
     23 H5          0.0281   -2.6581   -2.0711 H         1 <0>         0.1682
     24 H6          0.0541   -3.8072    0.1028 H         1 <0>         0.1936
     25 H7          0.0122    0.9397    2.4146 H         1 <0>         0.4604
     26 H8         -0.8335   -1.4120    3.7302 H         1 <0>         0.0812
     27 H9          0.9462   -1.3878    3.7133 H         1 <0>         0.0819
     28 H10         0.0615   -0.3407    5.7796 H         1 <0>         0.1374
     29 H11         2.2730    2.9186    5.9799 H         1 <0>         0.4073
     30 H12        -2.2564    2.6263    3.2711 H         1 <0>         0.4142
     31 H13         0.0448   -2.5151    2.0385 H         1 <0>         0.4372
@<TRIPOS>BOND
     1    1    2 1
     2    1   19 1
     3    1   20 1
     4    1   21 1
     5    2    7 ar
     6    2    3 ar
     7    3    4 ar
     8    3   22 1
     9    4    5 ar
    10    4   23 1
    11    5    6 ar
    12    5   24 1
    13    6    7 ar
    14    6   31 1
    15    7    8 1
    16    8    9 1
    17    8   25 1
    18    9   10 1
    19    9   26 1
    20    9   27 1
    21   10   11 1
    22   10   15 1
    23   10   28 1
    24   11   12 2
    25   11   13 1
    26   11   14 1
    27   14   29 1
    28   15   16 2
    29   15   17 1
    30   15   18 1
    31   18   30 1
@<TRIPOS>MOLECULE
CHEMBL834
   22    21     0     0     0
SMALL
USER_CHARGES

@<TRIPOS>ATOM
      1 C1         -0.0187    1.5258    0.0104 C.3       1 <0>        -0.1185
      2 C2          0.0021   -0.0041    0.0020 C.3       1 <0>        -0.0408
      3 N1         -1.3761   -0.5125    0.0124 N.4       1 <0>        -0.6310
      4 C3          1.4167    2.0553   -0.0004 C.3       1 <0>        -1.0269
      5 O1          2.1079    1.5820    1.1573 O.3       1 <0>        -0.5144
      6 P1          2.2700    1.4674   -1.5003 P.3       1 <0>         2.1967
      7 O2          2.4042   -0.0926   -1.4472 O.2       1 <0>        -1.1670
      8 O3          1.4432    1.8777   -2.7662 O.3       1 <0>        -1.1485
      9 O4          3.6959    2.1119   -1.5764 O.3       1 <0>        -1.1553
     10 P2          1.3920    3.8782    0.0096 P.3       1 <0>         2.2769
     11 O5          0.6448    4.3900   -1.2421 O.2       1 <0>        -1.0901
     12 O6          0.6688    4.3764    1.2807 O.3       1 <0>        -1.1288
     13 O7          2.9024    4.4354   -0.0018 O.3       1 <0>        -0.8701
     14 H1         -0.5459    1.8868   -0.8726 H         1 <0>         0.0955
     15 H2         -0.5289    1.8773    0.9072 H         1 <0>         0.0522
     16 H3          0.5123   -0.3556   -0.8948 H         1 <0>         0.1852
     17 H4          0.5293   -0.3651    0.8851 H         1 <0>         0.1182
     18 H5         -1.8484   -0.1871    0.8426 H         1 <0>         0.4103
     19 H6         -1.8641   -0.1783   -0.8050 H         1 <0>         0.4276
     20 H7          1.7085    1.8573    1.9938 H         1 <0>         0.3203
     21 H8          2.9657    5.4003    0.0028 H         1 <0>         0.3891
     22 H9         -1.3624   -1.5214    0.0069 H         1 <0>         0.4193
@<TRIPOS>BOND
     1    1    2 1
     2    1    4 1
     3    1   14 1
     4    1   15 1
     5    2    3 1
     6    2   16 1
     7    2   17 1
     8    3   18 1
     9    3   19 1
    10    3   22 1
    11    4    5 1
    12    4    6 1
    13    4   10 1
    14    5   20 1
    15    6    7 2
    16    6    8 1
    17    6    9 1
    18   10   11 2
    19   10   12 1
    20   10   13 1
    21   13   21 1
@<TRIPOS>MOLECULE
CHEMBL834__1
   23    22     0     0     0
SMALL
USER_CHARGES

@<TRIPOS>ATOM
      1 C1         -0.0187    1.5258    0.0104 C.3       1 <0>        -0.1393
      2 C2          0.0021   -0.0041    0.0020 C.3       1 <0>        -0.0492
      3 N1         -1.3761   -0.5125    0.0124 N.4       1 <0>        -0.6324
      4 C3          1.4167    2.0553   -0.0004 C.3       1 <0>        -1.0311
      5 O1          2.1079    1.5820    1.1573 O.3       1 <0>        -0.5032
      6 P1          2.2700    1.4674   -1.5003 P.3       1 <0>         2.2718
      7 O2          3.7194    2.0022   -1.5113 O.2       1 <0>        -1.0714
      8 O3          2.2910   -0.0774   -1.5088 O.3       1 <0>        -1.0874
      9 O4          1.4913    2.0008   -2.8046 O.3       1 <0>        -0.8861
     10 P2          1.3920    3.8782    0.0096 P.3       1 <0>         2.2441
     11 O5          0.6448    4.3900   -1.2421 O.2       1 <0>        -1.0787
     12 O6          0.6688    4.3764    1.2807 O.3       1 <0>        -1.0980
     13 O7          2.9024    4.4354   -0.0018 O.3       1 <0>        -0.8740
     14 H1         -0.5459    1.8868   -0.8726 H         1 <0>         0.0953
     15 H2         -0.5289    1.8773    0.9072 H         1 <0>         0.0802
     16 H3          0.5123   -0.3556   -0.8948 H         1 <0>         0.1836
     17 H4          0.5293   -0.3651    0.8851 H         1 <0>         0.1301
     18 H5         -1.8484   -0.1871    0.8426 H         1 <0>         0.4201
     19 H6         -1.8641   -0.1783   -0.8050 H         1 <0>         0.4283
     20 H7          1.7085    1.8573    1.9938 H         1 <0>         0.3529
     21 H8          1.8907    1.7254   -3.6411 H         1 <0>         0.4108
     22 H9          2.9657    5.4003    0.0028 H         1 <0>         0.4053
     23 H10        -1.3624   -1.5214    0.0069 H         1 <0>         0.4282
@<TRIPOS>BOND
     1    1    2 1
     2    1    4 1
     3    1   14 1
     4    1   15 1
     5    2    3 1
     6    2   16 1
     7    2   17 1
     8    3   18 1
     9    3   19 1
    10    3   23 1
    11    4    5 1
    12    4    6 1
    13    4   10 1
    14    5   20 1
    15    6    7 2
    16    6    8 1
    17    6    9 1
    18    9   21 1
    19   10   11 2
    20   10   12 1
    21   10   13 1
    22   13   22 1
@<TRIPOS>MOLECULE
CHEMBL457424
   26    27     0     0     0
SMALL
USER_CHARGES

@<TRIPOS>ATOM
      1 C1         -0.0159    1.3180    0.0093 C.ar      1 <0>         0.1735
      2 C2          1.2004    2.0027    0.0014 C.ar      1 <0>        -0.0279
      3 C3          2.3904    1.2471   -0.0141 C.ar      1 <0>         0.2641
      4 N1          2.3119   -0.0765   -0.0200 N.ar      1 <0>        -0.4999
      5 C4          1.1395   -0.6756   -0.0117 C.ar      1 <0>         0.2538
      6 N2          0.0021   -0.0041    0.0020 N.ar      1 <0>        -0.5434
      7 N3          3.4159    2.1589   -0.0190 N.pl3     1 <0>        -0.4479
      8 C5          2.8581    3.4019   -0.0070 C.2       1 <0>         0.3900
      9 N4          1.5600    3.3094    0.0049 N.2       1 <0>        -0.5197
     10 C6          4.8483    1.8519   -0.0336 C.3       1 <0>         0.1765
     11 C7          5.3074    1.6291   -1.4759 C.3       1 <0>        -1.2926
     12 P1          5.1376    3.1827   -2.4145 P.3       1 <0>         2.2030
     13 O1          3.6378    3.6355   -2.4079 O.2       1 <0>        -1.1695
     14 O2          6.0212    4.2931   -1.7507 O.3       1 <0>        -1.1571
     15 O3          5.6077    2.9546   -3.8915 O.3       1 <0>        -1.1776
     16 P2          7.0526    1.1023   -1.4836 P.3       1 <0>         2.3034
     17 O4          7.9241    2.1974   -0.8290 O.2       1 <0>        -1.0975
     18 O5          7.1966   -0.2144   -0.6881 O.3       1 <0>        -1.1383
     19 O6          7.5358    0.8679   -3.0014 O.3       1 <0>        -0.8809
     20 H1         -0.9518    1.8566    0.0256 H         1 <0>         0.1601
     21 H2          1.1065   -1.7550   -0.0172 H         1 <0>         0.1848
     22 H3          3.4124    4.3288   -0.0073 H         1 <0>         0.2205
     23 H4          5.4027    2.6843    0.3998 H         1 <0>         0.1005
     24 H5          5.0325    0.9497    0.5498 H         1 <0>         0.0677
     25 H6          4.6927    0.8566   -1.9377 H         1 <0>         0.0694
     26 H7          8.4571    0.5853   -3.0816 H         1 <0>         0.3851
@<TRIPOS>BOND
     1    1    6 ar
     2    1    2 ar
     3    1   20 1
     4    2    9 1
     5    2    3 ar
     6    3    4 ar
     7    3    7 1
     8    4    5 ar
     9    5    6 ar
    10    5   21 1
    11    7    8 1
    12    7   10 1
    13    8    9 2
    14    8   22 1
    15   10   11 1
    16   10   23 1
    17   10   24 1
    18   11   12 1
    19   11   16 1
    20   11   25 1
    21   12   13 2
    22   12   14 1
    23   12   15 1
    24   16   17 2
    25   16   18 1
    26   16   19 1
    27   19   26 1
@<TRIPOS>MOLECULE
CHEMBL457424__1
   27    28     0     0     0
SMALL
USER_CHARGES

@<TRIPOS>ATOM
      1 C1         -0.0159    1.3180    0.0093 C.ar      1 <0>         0.2012
      2 C2          1.2004    2.0027    0.0014 C.ar      1 <0>        -0.0414
      3 C3          2.3904    1.2471   -0.0141 C.ar      1 <0>         0.2752
      4 N1          2.3119   -0.0765   -0.0200 N.ar      1 <0>        -0.5026
      5 C4          1.1395   -0.6756   -0.0117 C.ar      1 <0>         0.2828
      6 N2          0.0021   -0.0041    0.0020 N.ar      1 <0>        -0.5344
      7 N3          3.4159    2.1589   -0.0190 N.pl3     1 <0>        -0.4598
      8 C5          2.8581    3.4019   -0.0070 C.2       1 <0>         0.3221
      9 N4          1.5600    3.3094    0.0049 N.2       1 <0>        -0.4851
     10 C6          4.8483    1.8519   -0.0336 C.3       1 <0>         0.1607
     11 C7          5.3074    1.6291   -1.4759 C.3       1 <0>        -1.2988
     12 P1          5.1376    3.1827   -2.4145 P.3       1 <0>         2.2584
     13 O1          5.9351    3.0773   -3.7336 O.2       1 <0>        -1.0866
     14 O2          3.6463    3.4317   -2.7328 O.3       1 <0>        -1.0964
     15 O3          5.7105    4.4051   -1.5372 O.3       1 <0>        -0.8910
     16 P2          7.0526    1.1023   -1.4836 P.3       1 <0>         2.2877
     17 O4          7.9241    2.1974   -0.8290 O.2       1 <0>        -1.0982
     18 O5          7.1966   -0.2144   -0.6881 O.3       1 <0>        -1.1126
     19 O6          7.5358    0.8679   -3.0014 O.3       1 <0>        -0.8780
     20 H1         -0.9518    1.8566    0.0256 H         1 <0>         0.1695
     21 H2          1.1065   -1.7550   -0.0172 H         1 <0>         0.1953
     22 H3          3.4124    4.3288   -0.0073 H         1 <0>         0.2190
     23 H4          5.4027    2.6843    0.3998 H         1 <0>         0.1052
     24 H5          5.0325    0.9497    0.5498 H         1 <0>         0.0934
     25 H6          4.6927    0.8566   -1.9377 H         1 <0>         0.1123
     26 H7          5.6520    5.2651   -1.9755 H         1 <0>         0.4036
     27 H8          8.4571    0.5853   -3.0816 H         1 <0>         0.3986
@<TRIPOS>BOND
     1    1    6 ar
     2    1    2 ar
     3    1   20 1
     4    2    9 1
     5    2    3 ar
     6    3    4 ar
     7    3    7 1
     8    4    5 ar
     9    5    6 ar
    10    5   21 1
    11    7    8 1
    12    7   10 1
    13    8    9 2
    14    8   22 1
    15   10   11 1
    16   10   23 1
    17   10   24 1
    18   11   12 1
    19   11   16 1
    20   11   25 1
    21   12   13 2
    22   12   14 1
    23   12   15 1
    24   15   26 1
    25   16   17 2
    26   16   18 1
    27   16   19 1
    28   19   27 1
@<TRIPOS>MOLECULE
CHEMBL457423
   28    29     0     0     0
SMALL
USER_CHARGES

@<TRIPOS>ATOM
      1 C1         -0.0164    1.3618    0.0095 C.ar      1 <0>        -0.1139
      2 C2          1.1675    2.0858    0.0021 C.ar      1 <0>        -0.2016
      3 C3          2.3834    1.4366   -0.0135 C.ar      1 <0>         0.0511
      4 C4          2.4219    0.0488   -0.0213 C.ar      1 <0>         0.1248
      5 C5          1.2229   -0.6838   -0.0133 C.ar      1 <0>         0.0169
      6 C6          0.0021   -0.0041    0.0020 C.ar      1 <0>        -0.1390
      7 N1          1.5627   -1.9984   -0.0238 N.2       1 <0>        -0.5255
      8 C7          2.8584   -2.1152   -0.0373 C.2       1 <0>         0.2006
      9 N2          3.4388   -0.8848   -0.0364 N.pl3     1 <0>        -0.4627
     10 C8          4.8763   -0.6028   -0.0496 C.3       1 <0>         0.1743
     11 C9          5.3672   -0.3886    1.3836 C.3       1 <0>        -1.2973
     12 P1          4.5885    1.1076    2.0754 P.3       1 <0>         2.2020
     13 O1          4.9736    2.3488    1.2004 O.2       1 <0>        -1.1460
     14 O2          3.0317    0.9327    2.0772 O.3       1 <0>        -1.1178
     15 O3          5.0912    1.3269    3.5429 O.3       1 <0>        -1.1740
     16 P2          7.1788   -0.1852    1.3814 P.3       1 <0>         2.3020
     17 O4          7.8387   -1.4532    0.7951 O.2       1 <0>        -1.1403
     18 O5          7.5585    1.0389    0.5186 O.3       1 <0>        -1.0968
     19 O6          7.6953    0.0403    2.8895 O.3       1 <0>        -0.8812
     20 H1         -0.9620    1.8835    0.0259 H         1 <0>         0.0922
     21 H2          1.1359    3.1654    0.0082 H         1 <0>         0.1005
     22 H3          3.3018    2.0048   -0.0199 H         1 <0>         0.1502
     23 H4         -0.9252   -0.5577    0.0076 H         1 <0>         0.0906
     24 H5          3.3951   -3.0524   -0.0473 H         1 <0>         0.1838
     25 H6          5.4076   -1.4446   -0.4937 H         1 <0>         0.0635
     26 H7          5.0648    0.2962   -0.6364 H         1 <0>         0.0904
     27 H8          5.0993   -1.2522    1.9923 H         1 <0>         0.0676
     28 H9          8.6525    0.1562    2.9642 H         1 <0>         0.3856
@<TRIPOS>BOND
     1    1    6 ar
     2    1    2 ar
     3    1   20 1
     4    2    3 ar
     5    2   21 1
     6    3    4 ar
     7    3   22 1
     8    4    9 1
     9    4    5 ar
    10    5    6 ar
    11    5    7 1
    12    6   23 1
    13    7    8 2
    14    8    9 1
    15    8   24 1
    16    9   10 1
    17   10   11 1
    18   10   25 1
    19   10   26 1
    20   11   12 1
    21   11   16 1
    22   11   27 1
    23   12   13 2
    24   12   14 1
    25   12   15 1
    26   16   17 2
    27   16   18 1
    28   16   19 1
    29   19   28 1
@<TRIPOS>MOLECULE
CHEMBL457423__1
   29    30     0     0     0
SMALL
USER_CHARGES

@<TRIPOS>ATOM
      1 C1         -0.0164    1.3618    0.0095 C.ar      1 <0>        -0.1242
      2 C2          1.1675    2.0858    0.0021 C.ar      1 <0>        -0.1564
      3 C3          2.3834    1.4366   -0.0135 C.ar      1 <0>         0.0015
      4 C4          2.4219    0.0488   -0.0213 C.ar      1 <0>         0.1108
      5 C5          1.2229   -0.6838   -0.0133 C.ar      1 <0>         0.0311
      6 C6          0.0021   -0.0041    0.0020 C.ar      1 <0>        -0.1014
      7 N1          1.5627   -1.9984   -0.0238 N.2       1 <0>        -0.5127
      8 C7          2.8584   -2.1152   -0.0373 C.2       1 <0>         0.2303
      9 N2          3.4388   -0.8848   -0.0364 N.pl3     1 <0>        -0.4792
     10 C8          4.8763   -0.6028   -0.0496 C.3       1 <0>         0.1642
     11 C9          5.3672   -0.3886    1.3836 C.3       1 <0>        -1.3021
     12 P1          7.1788   -0.1852    1.3814 P.3       1 <0>         2.2757
     13 O1          7.8387   -1.4532    0.7951 O.2       1 <0>        -1.1115
     14 O2          7.5585    1.0389    0.5186 O.3       1 <0>        -1.0905
     15 O3          7.6953    0.0403    2.8895 O.3       1 <0>        -0.8834
     16 P2          4.5885    1.1076    2.0754 P.3       1 <0>         2.2567
     17 O4          3.0532    0.9352    2.0772 O.2       1 <0>        -1.0607
     18 O5          5.0842    1.3239    3.5226 O.3       1 <0>        -1.0923
     19 O6          4.9843    2.3832    1.1763 O.3       1 <0>        -0.8809
     20 H1         -0.9620    1.8835    0.0259 H         1 <0>         0.1069
     21 H2          1.1359    3.1654    0.0082 H         1 <0>         0.1108
     22 H3          3.3018    2.0048   -0.0199 H         1 <0>         0.1149
     23 H4         -0.9252   -0.5577    0.0076 H         1 <0>         0.1056
     24 H5          3.3951   -3.0524   -0.0473 H         1 <0>         0.1952
     25 H6          5.4076   -1.4446   -0.4937 H         1 <0>         0.0888
     26 H7          5.0648    0.2962   -0.6364 H         1 <0>         0.0901
     27 H8          5.0993   -1.2522    1.9923 H         1 <0>         0.1105
     28 H9          8.6525    0.1562    2.9642 H         1 <0>         0.4007
     29 H10         4.6040    3.2163    1.4866 H         1 <0>         0.4015
@<TRIPOS>BOND
     1    1    6 ar
     2    1    2 ar
     3    1   20 1
     4    2    3 ar
     5    2   21 1
     6    3    4 ar
     7    3   22 1
     8    4    9 1
     9    4    5 ar
    10    5    6 ar
    11    5    7 1
    12    6   23 1
    13    7    8 2
    14    8    9 1
    15    8   24 1
    16    9   10 1
    17   10   11 1
    18   10   25 1
    19   10   26 1
    20   11   12 1
    21   11   16 1
    22   11   27 1
    23   12   13 2
    24   12   14 1
    25   12   15 1
    26   15   28 1
    27   16   17 2
    28   16   18 1
    29   16   19 1
    30   19   29 1
@<TRIPOS>MOLECULE
CHEMBL504429
   23    23     0     0     0
SMALL
USER_CHARGES

@<TRIPOS>ATOM
      1 C1         -0.0166    1.3726    0.0096 C.2       1 <0>        -0.1156
      2 C2          1.2634    1.7820   -0.0004 C.2       1 <0>        -0.0268
      3 N1          2.0546    0.6962   -0.0138 N.2       1 <0>        -0.5385
      4 C3          1.3090   -0.3842   -0.0125 C.2       1 <0>         0.1792
      5 N2          0.0021   -0.0041    0.0020 N.pl3     1 <0>        -0.5703
      6 H1         -0.7697   -0.5916    0.0067 H         1 <0>         0.4142
      7 S1          1.8995   -2.0442   -0.0279 S.3       1 <0>         0.1772
      8 C4          3.7049   -1.8676   -0.0443 C.3       1 <0>        -0.0367
      9 C5          4.3528   -3.2535   -0.0587 C.3       1 <0>        -1.2813
     10 P1          3.8460   -4.1767    1.4293 P.3       1 <0>         2.2020
     11 O1          4.3062   -3.3984    2.7087 O.2       1 <0>        -1.1912
     12 O2          2.2868   -4.3292    1.4435 O.3       1 <0>        -1.1205
     13 O3          4.5094   -5.5959    1.4146 O.3       1 <0>        -1.1777
     14 P2          3.8173   -4.1592   -1.5474 P.3       1 <0>         2.2839
     15 O4          2.2797   -4.3097   -1.5335 O.2       1 <0>        -1.0703
     16 O5          4.2467   -3.3768   -2.8086 O.3       1 <0>        -1.1353
     17 O6          4.4991   -5.6177   -1.5626 O.3       1 <0>        -0.8803
     18 H2         -0.8931    2.0034    0.0253 H         1 <0>         0.1559
     19 H3          1.5987    2.8086    0.0016 H         1 <0>         0.1480
     20 H4          4.0079   -1.3156   -0.9341 H         1 <0>         0.0569
     21 H5          4.0250   -1.3260    0.8458 H         1 <0>         0.0660
     22 H6          5.4375   -3.1474   -0.0686 H         1 <0>         0.0774
     23 H7          4.2581   -6.1565   -2.3285 H         1 <0>         0.3838
@<TRIPOS>BOND
     1    1    5 1
     2    1    2 2
     3    1   18 1
     4    2    3 1
     5    2   19 1
     6    3    4 2
     7    4    5 1
     8    4    7 1
     9    5    6 1
    10    7    8 1
    11    8    9 1
    12    8   20 1
    13    8   21 1
    14    9   10 1
    15    9   14 1
    16    9   22 1
    17   10   11 2
    18   10   12 1
    19   10   13 1
    20   14   15 2
    21   14   16 1
    22   14   17 1
    23   17   23 1
@<TRIPOS>MOLECULE
CHEMBL504429__1
   24    24     0     0     0
SMALL
USER_CHARGES

@<TRIPOS>ATOM
      1 C1         -0.0166    1.3726    0.0096 C.2       1 <0>        -0.0840
      2 C2          1.2634    1.7820   -0.0004 C.2       1 <0>        -0.0241
      3 N1          2.0546    0.6962   -0.0138 N.2       1 <0>        -0.5179
      4 C3          1.3090   -0.3842   -0.0125 C.2       1 <0>         0.1888
      5 N2          0.0021   -0.0041    0.0020 N.pl3     1 <0>        -0.5621
      6 H1         -0.7697   -0.5916    0.0067 H         1 <0>         0.4190
      7 S1          1.8995   -2.0442   -0.0279 S.3       1 <0>         0.1098
      8 C4          3.7049   -1.8676   -0.0443 C.3       1 <0>        -0.0531
      9 C5          4.3528   -3.2535   -0.0587 C.3       1 <0>        -1.2816
     10 P1          3.8460   -4.1767    1.4293 P.3       1 <0>         2.2648
     11 O1          4.1755   -5.6746    1.2432 O.2       1 <0>        -1.0898
     12 O2          4.6070   -3.6308    2.6581 O.3       1 <0>        -1.1125
     13 O3          2.2620   -3.9999    1.6570 O.3       1 <0>        -0.8693
     14 P2          3.8173   -4.1592   -1.5474 P.3       1 <0>         2.2700
     15 O4          2.2797   -4.3097   -1.5335 O.2       1 <0>        -1.0696
     16 O5          4.2467   -3.3768   -2.8086 O.3       1 <0>        -1.1109
     17 O6          4.4991   -5.6177   -1.5626 O.3       1 <0>        -0.8779
     18 H2         -0.8931    2.0034    0.0253 H         1 <0>         0.1684
     19 H3          1.5987    2.8086    0.0016 H         1 <0>         0.1598
     20 H4          4.0079   -1.3156   -0.9341 H         1 <0>         0.0841
     21 H5          4.0250   -1.3260    0.8458 H         1 <0>         0.0769
     22 H6          5.4375   -3.1474   -0.0686 H         1 <0>         0.1201
     23 H7          1.9219   -4.4655    2.4333 H         1 <0>         0.3940
     24 H8          4.2581   -6.1565   -2.3285 H         1 <0>         0.3970
@<TRIPOS>BOND
     1    1    5 1
     2    1    2 2
     3    1   18 1
     4    2    3 1
     5    2   19 1
     6    3    4 2
     7    4    5 1
     8    4    7 1
     9    5    6 1
    10    7    8 1
    11    8    9 1
    12    8   20 1
    13    8   21 1
    14    9   10 1
    15    9   14 1
    16    9   22 1
    17   10   11 2
    18   10   12 1
    19   10   13 1
    20   13   23 1
    21   14   15 2
    22   14   16 1
    23   14   17 1
    24   17   24 1
@<TRIPOS>MOLECULE
CHEMBL446734
   23    23     0     0     0
SMALL
USER_CHARGES

@<TRIPOS>ATOM
      1 C1         -0.0161    1.3371    0.0094 C.2       1 <0>        -0.0774
      2 C2          1.2587    1.7711   -0.0004 C.2       1 <0>         0.1541
      3 N1          2.0558    0.6583   -0.0140 N.pl3     1 <0>        -0.3784
      4 C3          1.2397   -0.4176   -0.0120 C.cat     1 <0>         0.2260
      5 N2          0.0021   -0.0041    0.0020 N.pl3     1 <0>        -0.4803
      6 C4          3.5206    0.6384   -0.0281 C.3       1 <0>         0.1545
      7 C5          4.0443    0.6237    1.4094 C.3       1 <0>        -1.2974
      8 P1          3.5911    2.1835    2.2372 P.3       1 <0>         2.1881
      9 O1          4.2248    3.3889    1.4628 O.2       1 <0>        -1.1432
     10 O2          2.0317    2.3334    2.2510 O.3       1 <0>        -1.1604
     11 O3          4.1274    2.1684    3.7091 O.3       1 <0>        -1.1615
     12 P2          5.8588    0.4492    1.3933 P.3       1 <0>         2.3004
     13 O4          6.2429   -0.8726    0.6918 O.2       1 <0>        -1.1326
     14 O5          6.4838    1.6380    0.6296 O.3       1 <0>        -1.0887
     15 O6          6.4099    0.4338    2.9060 O.3       1 <0>        -0.8814
     16 H1         -0.8984    1.9597    0.0252 H         1 <0>         0.2038
     17 H2          1.5887    2.7994    0.0016 H         1 <0>         0.2170
     18 H3          1.5585   -1.4495   -0.0206 H         1 <0>         0.2346
     19 H4          3.8668   -0.2536   -0.5501 H         1 <0>         0.0896
     20 H5          3.8911    1.5261   -0.5408 H         1 <0>         0.1240
     21 H6          3.6034   -0.2150    1.9482 H         1 <0>         0.0756
     22 H7          7.3703    0.3434    2.9738 H         1 <0>         0.3931
     23 H8         -0.7811   -0.5763    0.0069 H         1 <0>         0.4406
@<TRIPOS>BOND
     1    1    5 1
     2    1    2 2
     3    1   16 1
     4    2    3 1
     5    2   17 1
     6    3    4 1
     7    3    6 1
     8    4    5 2
     9    4   18 1
    10    5   23 1
    11    6    7 1
    12    6   19 1
    13    6   20 1
    14    7    8 1
    15    7   12 1
    16    7   21 1
    17    8    9 2
    18    8   10 1
    19    8   11 1
    20   12   13 2
    21   12   14 1
    22   12   15 1
    23   15   22 1
@<TRIPOS>MOLECULE
CHEMBL446734__1
   24    24     0     0     0
SMALL
USER_CHARGES

@<TRIPOS>ATOM
      1 C1         -0.0161    1.3371    0.0094 C.2       1 <0>        -0.0163
      2 C2          1.2587    1.7711   -0.0004 C.2       1 <0>         0.0217
      3 N1          2.0558    0.6583   -0.0140 N.pl3     1 <0>        -0.4006
      4 C3          1.2397   -0.4176   -0.0120 C.cat     1 <0>         0.3275
      5 N2          0.0021   -0.0041    0.0020 N.pl3     1 <0>        -0.4797
      6 C4          3.5206    0.6384   -0.0281 C.3       1 <0>         0.1396
      7 C5          4.0443    0.6237    1.4094 C.3       1 <0>        -1.3042
      8 P1          3.5486   -0.9316    2.2208 P.3       1 <0>         2.2506
      9 O1          4.3735   -1.1240    3.5130 O.2       1 <0>        -1.0705
     10 O2          2.0455   -0.8723    2.5734 O.3       1 <0>        -1.0994
     11 O3          3.8175   -2.1666    1.2236 O.3       1 <0>        -0.8930
     12 P2          5.8629    0.7488    1.3949 P.3       1 <0>         2.2802
     13 O4          6.4553   -0.4486    0.6187 O.2       1 <0>        -1.0880
     14 O5          6.2830    2.0670    0.7071 O.3       1 <0>        -1.1049
     15 O6          6.4140    0.7334    2.9075 O.3       1 <0>        -0.8778
     16 H1         -0.8984    1.9597    0.0252 H         1 <0>         0.2145
     17 H2          1.5887    2.7994    0.0016 H         1 <0>         0.2101
     18 H3          1.5585   -1.4495   -0.0206 H         1 <0>         0.2497
     19 H4          3.8668   -0.2536   -0.5501 H         1 <0>         0.1262
     20 H5          3.8911    1.5261   -0.5408 H         1 <0>         0.1198
     21 H6          3.6263    1.4685    1.9570 H         1 <0>         0.1213
     22 H7          3.5763   -3.0282    1.5905 H         1 <0>         0.4113
     23 H8          7.3765    0.7969    2.9762 H         1 <0>         0.4064
     24 H9         -0.7811   -0.5763    0.0069 H         1 <0>         0.4557
@<TRIPOS>BOND
     1    1    5 1
     2    1    2 2
     3    1   16 1
     4    2    3 1
     5    2   17 1
     6    3    4 1
     7    3    6 1
     8    4    5 2
     9    4   18 1
    10    5   24 1
    11    6    7 1
    12    6   19 1
    13    6   20 1
    14    7    8 1
    15    7   12 1
    16    7   21 1
    17    8    9 2
    18    8   10 1
    19    8   11 1
    20   11   22 1
    21   12   13 2
    22   12   14 1
    23   12   15 1
    24   15   23 1
@<TRIPOS>MOLECULE
CHEMBL446734__2
   23    23     0     0     0
SMALL
USER_CHARGES

@<TRIPOS>ATOM
      1 C1         -0.0161    1.3371    0.0094 C.2       1 <0>        -0.0436
      2 C2          1.2587    1.7711   -0.0004 C.2       1 <0>        -0.0696
      3 N1          2.0558    0.6583   -0.0140 N.pl3     1 <0>        -0.4469
      4 C3          1.2397   -0.4176   -0.0120 C.2       1 <0>         0.2299
      5 N2          0.0021   -0.0041    0.0020 N.2       1 <0>        -0.5079
      6 C4          3.5206    0.6384   -0.0281 C.3       1 <0>         0.1553
      7 C5          4.0443    0.6237    1.4094 C.3       1 <0>        -1.3023
      8 P1          3.5486   -0.9316    2.2208 P.3       1 <0>         2.2611
      9 O1          4.3735   -1.1240    3.5130 O.2       1 <0>        -1.0897
     10 O2          2.0455   -0.8723    2.5734 O.3       1 <0>        -1.0920
     11 O3          3.8175   -2.1666    1.2236 O.3       1 <0>        -0.8913
     12 P2          5.8629    0.7488    1.3949 P.3       1 <0>         2.2885
     13 O4          6.4553   -0.4486    0.6187 O.2       1 <0>        -1.0991
     14 O5          6.2830    2.0670    0.7071 O.3       1 <0>        -1.1167
     15 O6          6.4140    0.7334    2.9075 O.3       1 <0>        -0.8778
     16 H1         -0.8984    1.9597    0.0252 H         1 <0>         0.1568
     17 H2          1.5887    2.7994    0.0016 H         1 <0>         0.1569
     18 H3          1.5585   -1.4495   -0.0206 H         1 <0>         0.1943
     19 H4          3.8668   -0.2536   -0.5501 H         1 <0>         0.0985
     20 H5          3.8911    1.5261   -0.5408 H         1 <0>         0.0852
     21 H6          3.6263    1.4685    1.9570 H         1 <0>         0.1095
     22 H7          3.5763   -3.0282    1.5905 H         1 <0>         0.4025
     23 H8          7.3765    0.7969    2.9762 H         1 <0>         0.3983
@<TRIPOS>BOND
     1    1    5 1
     2    1    2 2
     3    1   16 1
     4    2    3 1
     5    2   17 1
     6    3    4 1
     7    3    6 1
     8    4    5 2
     9    4   18 1
    10    6    7 1
    11    6   19 1
    12    6   20 1
    13    7    8 1
    14    7   12 1
    15    7   21 1
    16    8    9 2
    17    8   10 1
    18    8   11 1
    19   11   22 1
    20   12   13 2
    21   12   14 1
    22   12   15 1
    23   15   23 1
@<TRIPOS>MOLECULE
CHEMBL446734__3
   22    22     0     0     0
SMALL
USER_CHARGES

@<TRIPOS>ATOM
      1 C1         -0.0161    1.3371    0.0094 C.2       1 <0>        -0.1094
      2 C2          1.2587    1.7711   -0.0004 C.2       1 <0>         0.0939
      3 N1          2.0558    0.6583   -0.0140 N.pl3     1 <0>        -0.4342
      4 C3          1.2397   -0.4176   -0.0120 C.2       1 <0>         0.1208
      5 N2          0.0021   -0.0041    0.0020 N.2       1 <0>        -0.5158
      6 C4          3.5206    0.6384   -0.0281 C.3       1 <0>         0.1723
      7 C5          4.0443    0.6237    1.4094 C.3       1 <0>        -1.2956
      8 P1          3.5911    2.1835    2.2372 P.3       1 <0>         2.2058
      9 O1          4.2248    3.3889    1.4628 O.2       1 <0>        -1.1616
     10 O2          2.0317    2.3334    2.2510 O.3       1 <0>        -1.1655
     11 O3          4.1274    2.1684    3.7091 O.3       1 <0>        -1.1820
     12 P2          5.8588    0.4492    1.3933 P.3       1 <0>         2.3034
     13 O4          6.2429   -0.8726    0.6918 O.2       1 <0>        -1.1422
     14 O5          6.4838    1.6380    0.6296 O.3       1 <0>        -1.0987
     15 O6          6.4099    0.4338    2.9060 O.3       1 <0>        -0.8805
     16 H1         -0.8984    1.9597    0.0252 H         1 <0>         0.1465
     17 H2          1.5887    2.7994    0.0016 H         1 <0>         0.1679
     18 H3          1.5585   -1.4495   -0.0206 H         1 <0>         0.1743
     19 H4          3.8668   -0.2536   -0.5501 H         1 <0>         0.0590
     20 H5          3.8911    1.5261   -0.5408 H         1 <0>         0.0915
     21 H6          3.6034   -0.2150    1.9482 H         1 <0>         0.0657
     22 H7          7.3703    0.3434    2.9738 H         1 <0>         0.3844
@<TRIPOS>BOND
     1    1    5 1
     2    1    2 2
     3    1   16 1
     4    2    3 1
     5    2   17 1
     6    3    4 1
     7    3    6 1
     8    4    5 2
     9    4   18 1
    10    6    7 1
    11    6   19 1
    12    6   20 1
    13    7    8 1
    14    7   12 1
    15    7   21 1
    16    8    9 2
    17    8   10 1
    18    8   11 1
    19   12   13 2
    20   12   14 1
    21   12   15 1
    22   15   22 1
@<TRIPOS>MOLECULE
CHEMBL317573
   29    30     0     0     0
SMALL
USER_CHARGES

@<TRIPOS>ATOM
      1 C1          0.5083    1.4458   -0.5121 C.ar      1 <0>        -0.1823
      2 C2          1.7547    2.0334   -0.3999 C.ar      1 <0>         0.0610
      3 N1          2.8328    1.2963   -0.2182 N.ar      1 <0>        -0.5006
      4 C3          2.7698   -0.0183   -0.1363 C.ar      1 <0>         0.1855
      5 C4          1.5577   -0.6760   -0.2396 C.ar      1 <0>        -0.0678
      6 C5          0.4039    0.0663   -0.4306 C.ar      1 <0>        -0.0644
      7 C6         -0.7909   -0.8542   -0.5134 C.3       1 <0>        -0.0723
      8 C7         -0.3082   -2.1965    0.0781 C.3       1 <0>        -0.1701
      9 C8          1.2131   -2.1469   -0.1820 C.3       1 <0>        -0.0260
     10 C9          1.9695   -2.8248    0.9622 C.3       1 <0>        -1.0230
     11 O1          3.3726   -2.7863    0.6944 O.3       1 <0>        -0.5175
     12 P1          1.6244   -1.9476    2.5225 P.3       1 <0>         2.2180
     13 O2          1.9683   -0.4284    2.3547 O.2       1 <0>        -1.1630
     14 O3          0.1080   -2.1028    2.8846 O.3       1 <0>        -1.1415
     15 O4          2.5002   -2.5577    3.6694 O.3       1 <0>        -1.1806
     16 P2          1.4258   -4.5588    1.1068 P.3       1 <0>         2.2673
     17 O5         -0.0854   -4.5998    1.4255 O.2       1 <0>        -1.0827
     18 O6          1.6913   -5.2946   -0.2255 O.3       1 <0>        -1.1341
     19 O7          2.2437   -5.2807    2.2908 O.3       1 <0>        -0.8759
     20 H1         -0.3725    2.0537   -0.6568 H         1 <0>         0.1043
     21 H2          1.8463    3.1077   -0.4621 H         1 <0>         0.1274
     22 H3          3.6752   -0.5878    0.0128 H         1 <0>         0.1396
     23 H4         -1.6167   -0.4562    0.0763 H         1 <0>         0.0655
     24 H5         -1.0956   -0.9861   -1.5516 H         1 <0>         0.0494
     25 H6         -0.5173   -2.2463    1.1466 H         1 <0>         0.1776
     26 H7         -0.7633   -3.0367   -0.4463 H         1 <0>         0.0643
     27 H8          1.4505   -2.6283   -1.1308 H         1 <0>         0.0464
     28 H9          3.6295   -3.2350   -0.1228 H         1 <0>         0.3139
     29 H10         2.0054   -6.2083    2.4247 H         1 <0>         0.3820
@<TRIPOS>BOND
     1    1    6 ar
     2    1    2 ar
     3    1   20 1
     4    2    3 ar
     5    2   21 1
     6    3    4 ar
     7    4    5 ar
     8    4   22 1
     9    5    9 1
    10    5    6 ar
    11    6    7 1
    12    7    8 1
    13    7   23 1
    14    7   24 1
    15    8    9 1
    16    8   25 1
    17    8   26 1
    18    9   10 1
    19    9   27 1
    20   10   11 1
    21   10   12 1
    22   10   16 1
    23   11   28 1
    24   12   13 2
    25   12   14 1
    26   12   15 1
    27   16   17 2
    28   16   18 1
    29   16   19 1
    30   19   29 1
@<TRIPOS>MOLECULE
CHEMBL317573__1
   30    31     0     0     0
SMALL
USER_CHARGES

@<TRIPOS>ATOM
      1 C1         -0.1899    1.1798   -0.3959 C.ar      1 <0>        -0.1726
      2 C2          0.9695    1.9329   -0.4043 C.ar      1 <0>         0.0813
      3 N1          2.1503    1.3522   -0.3193 N.ar      1 <0>        -0.4853
      4 C3          2.2752    0.0430   -0.2233 C.ar      1 <0>         0.1724
      5 C4          1.1600   -0.7746   -0.2087 C.ar      1 <0>        -0.1083
      6 C5         -0.0970   -0.1993   -0.2960 C.ar      1 <0>        -0.0588
      7 C6         -1.1573   -1.2745   -0.2610 C.3       1 <0>        -0.0784
      8 C7         -0.4437   -2.5274    0.2916 C.3       1 <0>        -0.1498
      9 C8          1.0263   -2.2773   -0.1096 C.3       1 <0>        -0.0367
     10 C9          1.9697   -2.8245    0.9634 C.3       1 <0>        -1.0234
     11 O1          3.3240   -2.6324    0.5498 O.3       1 <0>        -0.5092
     12 P1          1.6826   -1.9417    2.5324 P.3       1 <0>         2.2317
     13 O2          2.7373   -2.3825    3.5718 O.2       1 <0>        -1.0869
     14 O3          1.7979   -0.4194    2.2954 O.3       1 <0>        -1.0809
     15 O4          0.2097   -2.2893    3.0819 O.3       1 <0>        -0.8688
     16 P2          1.6533   -4.6040    1.2007 P.3       1 <0>         2.2781
     17 O5          0.2358   -4.8020    1.7824 O.2       1 <0>        -1.0808
     18 O6          1.7585   -5.3315   -0.1583 O.3       1 <0>        -1.1074
     19 O7          2.7414   -5.2114    2.2201 O.3       1 <0>        -0.8840
     20 H1         -1.1550    1.6601   -0.4618 H         1 <0>         0.1164
     21 H2          0.9074    3.0083   -0.4818 H         1 <0>         0.1403
     22 H3          3.2597   -0.3957   -0.1556 H         1 <0>         0.1338
     23 H4         -1.9723   -0.9807    0.4006 H         1 <0>         0.0739
     24 H5         -1.5349   -1.4663   -1.2654 H         1 <0>         0.0708
     25 H6         -0.5453   -2.5846    1.3753 H         1 <0>         0.1278
     26 H7         -0.8258   -3.4314   -0.1826 H         1 <0>         0.0872
     27 H8          1.2394   -2.7402   -1.0732 H         1 <0>         0.0829
     28 H9          3.6121   -1.7094    0.5625 H         1 <0>         0.3421
     29 H10        -0.0411   -1.7952    3.8744 H         1 <0>         0.3952
     30 H11         2.6335   -6.1566    2.3933 H         1 <0>         0.3973
@<TRIPOS>BOND
     1    1    6 ar
     2    1    2 ar
     3    1   20 1
     4    2    3 ar
     5    2   21 1
     6    3    4 ar
     7    4    5 ar
     8    4   22 1
     9    5    9 1
    10    5    6 ar
    11    6    7 1
    12    7    8 1
    13    7   23 1
    14    7   24 1
    15    8    9 1
    16    8   25 1
    17    8   26 1
    18    9   10 1
    19    9   27 1
    20   10   11 1
    21   10   12 1
    22   10   16 1
    23   11   28 1
    24   12   13 2
    25   12   14 1
    26   12   15 1
    27   15   29 1
    28   16   17 2
    29   16   18 1
    30   16   19 1
    31   19   30 1
@<TRIPOS>MOLECULE
CHEMBL317573__2
   29    30     0     0     0
SMALL
USER_CHARGES

@<TRIPOS>ATOM
      1 C1         -0.5339    0.8756    0.6345 C.ar      1 <0>        -0.1765
      2 C2          0.5622    1.7128    0.7291 C.ar      1 <0>         0.0631
      3 N1          1.7860    1.2354    0.6149 N.ar      1 <0>        -0.4938
      4 C3          2.0150   -0.0467    0.4084 C.ar      1 <0>         0.1621
      5 C4          0.9681   -0.9441    0.3029 C.ar      1 <0>        -0.0875
      6 C5         -0.3312   -0.4781    0.4176 C.ar      1 <0>        -0.0552
      7 C6         -1.3029   -1.6252    0.2700 C.3       1 <0>        -0.0799
      8 C7         -0.4862   -2.7655   -0.3759 C.3       1 <0>        -0.1508
      9 C8          0.9547   -2.4380    0.0712 C.3       1 <0>        -0.0267
     10 C9          1.9501   -2.8135   -1.0285 C.3       1 <0>        -1.0193
     11 O1          3.2808   -2.5617   -0.5726 O.3       1 <0>        -0.5175
     12 P1          1.7706   -4.5820   -1.4326 P.3       1 <0>         2.2170
     13 O2          2.1154   -5.4437   -0.1704 O.2       1 <0>        -1.1931
     14 O3          0.2952   -4.8697   -1.8741 O.3       1 <0>        -1.1503
     15 O4          2.7468   -4.9525   -2.6005 O.3       1 <0>        -1.1785
     16 P2          1.6179   -1.8134   -2.5161 P.3       1 <0>         2.2615
     17 O5          0.2341   -2.1896   -3.0911 O.2       1 <0>        -1.0786
     18 O6          1.6301   -0.3144   -2.1422 O.3       1 <0>        -1.1076
     19 O7          2.7539   -2.1004   -3.6203 O.3       1 <0>        -0.8766
     20 H1         -1.5343    1.2704    0.7328 H         1 <0>         0.1089
     21 H2          0.4145    2.7692    0.8979 H         1 <0>         0.1315
     22 H3          3.0318   -0.3999    0.3204 H         1 <0>         0.1317
     23 H4         -1.6757   -1.9332    1.2468 H         1 <0>         0.0552
     24 H5         -2.1308   -1.3386   -0.3785 H         1 <0>         0.0676
     25 H6         -0.8012   -3.7346    0.0110 H         1 <0>         0.0761
     26 H7         -0.5705   -2.7350   -1.4622 H         1 <0>         0.1653
     27 H8          1.1931   -2.9660    0.9944 H         1 <0>         0.0629
     28 H9          3.5020   -1.6228   -0.5039 H         1 <0>         0.3068
     29 H10         2.6403   -1.6009   -4.4404 H         1 <0>         0.3821
@<TRIPOS>BOND
     1    1    6 ar
     2    1    2 ar
     3    1   20 1
     4    2    3 ar
     5    2   21 1
     6    3    4 ar
     7    4    5 ar
     8    4   22 1
     9    5    9 1
    10    5    6 ar
    11    6    7 1
    12    7    8 1
    13    7   23 1
    14    7   24 1
    15    8    9 1
    16    8   25 1
    17    8   26 1
    18    9   10 1
    19    9   27 1
    20   10   11 1
    21   10   12 1
    22   10   16 1
    23   11   28 1
    24   12   13 2
    25   12   14 1
    26   12   15 1
    27   16   17 2
    28   16   18 1
    29   16   19 1
    30   19   29 1
@<TRIPOS>MOLECULE
CHEMBL317573__3
   30    31     0     0     0
SMALL
USER_CHARGES

@<TRIPOS>ATOM
      1 C1          0.3258    1.6137   -0.4748 C.ar      1 <0>        -0.1759
      2 C2          1.5301    2.2135   -0.7930 C.ar      1 <0>         0.0780
      3 N1          2.6377    1.5019   -0.8683 N.ar      1 <0>        -0.4935
      4 C3          2.6448    0.2023   -0.6453 C.ar      1 <0>         0.1792
      5 C4          1.4781   -0.4662   -0.3220 C.ar      1 <0>        -0.0969
      6 C5          0.2953    0.2493   -0.2342 C.ar      1 <0>        -0.0567
      7 C6         -0.8404   -0.6787    0.1275 C.3       1 <0>        -0.0703
      8 C7         -0.3124   -2.0986   -0.1719 C.3       1 <0>        -0.1800
      9 C8          1.2143   -1.9247   -0.0237 C.3       1 <0>        -0.0368
     10 C9          1.9501   -2.8135   -1.0285 C.3       1 <0>        -1.0232
     11 O1          3.3604   -2.6603   -0.8566 O.3       1 <0>        -0.5079
     12 P1          1.4896   -4.5553   -0.7502 P.3       1 <0>         2.2439
     13 O2          2.3305   -5.4642   -1.6742 O.2       1 <0>        -1.0878
     14 O3          1.7588   -4.9299    0.7243 O.3       1 <0>        -1.1053
     15 O4         -0.0738   -4.7560   -1.0781 O.3       1 <0>        -0.8727
     16 P2          1.4880   -2.3261   -2.7232 P.3       1 <0>         2.2772
     17 O5         -0.0071   -2.6364   -2.9588 O.2       1 <0>        -1.0775
     18 O6          1.7352   -0.8124   -2.9093 O.3       1 <0>        -1.0848
     19 O7          2.3801   -3.1496   -3.7806 O.3       1 <0>        -0.8848
     20 H1         -0.5781    2.2012   -0.4102 H         1 <0>         0.1136
     21 H2          1.5641    3.2762   -0.9823 H         1 <0>         0.1372
     22 H3          3.5722   -0.3465   -0.7164 H         1 <0>         0.1429
     23 H4         -1.0860   -0.5817    1.1850 H         1 <0>         0.0642
     24 H5         -1.7150   -0.4632   -0.4862 H         1 <0>         0.0746
     25 H6         -0.6934   -2.8149    0.5560 H         1 <0>         0.0701
     26 H7         -0.5704   -2.4017   -1.1867 H         1 <0>         0.1571
     27 H8          1.5250   -2.1648    0.9932 H         1 <0>         0.0741
     28 H9          3.6778   -2.9021    0.0242 H         1 <0>         0.3482
     29 H10        -0.3891   -5.6614   -0.9515 H         1 <0>         0.3974
     30 H11         2.1875   -2.9405   -4.7049 H         1 <0>         0.3964
@<TRIPOS>BOND
     1    1    6 ar
     2    1    2 ar
     3    1   20 1
     4    2    3 ar
     5    2   21 1
     6    3    4 ar
     7    4    5 ar
     8    4   22 1
     9    5    9 1
    10    5    6 ar
    11    6    7 1
    12    7    8 1
    13    7   23 1
    14    7   24 1
    15    8    9 1
    16    8   25 1
    17    8   26 1
    18    9   10 1
    19    9   27 1
    20   10   11 1
    21   10   12 1
    22   10   16 1
    23   11   28 1
    24   12   13 2
    25   12   14 1
    26   12   15 1
    27   15   29 1
    28   16   17 2
    29   16   18 1
    30   16   19 1
    31   19   30 1
@<TRIPOS>MOLECULE
CHEMBL235059
   29    28     0     0     0
SMALL
NO_CHARGES

@<TRIPOS>ATOM
      1 C1          0.5505    1.8796   -0.5654 C.3       1 <0>        -0.1494
      2 C2          0.2568    0.3782   -0.5484 C.3       1 <0>        -0.1219
      3 C3          1.0703   -0.3130   -1.6444 C.3       1 <0>        -0.2394
      4 S1          0.7221   -2.0932   -1.6243 S.3       1 <0>         0.5628
      5 C4          1.1779   -2.7803   -0.0085 C.3       1 <0>        -0.2824
      6 C5          1.6866   -2.9127   -2.9238 C.3       1 <0>        -0.2443
      7 C6          1.5020   -4.4278   -2.8172 C.3       1 <0>        -0.9645
      8 P1         -0.2348   -4.8547   -3.1701 P.3       1 <0>         1.9118
      9 O1         -1.1350   -4.4194   -1.9640 O.2       1 <0>        -0.7823
     10 O2         -0.7026   -4.1098   -4.4665 O.3       1 <0>        -0.6354
     11 O3         -0.3594   -6.4018   -3.3830 O.3       1 <0>        -0.6266
     12 P2          2.5889   -5.2586   -4.0221 P.3       1 <0>         2.1493
     13 O4          2.2853   -4.7280   -5.4410 O.2       1 <0>        -0.8869
     14 O5          4.0650   -4.9697   -3.6691 O.3       1 <0>        -0.9571
     15 O6          2.3269   -6.8465   -3.9756 O.3       1 <0>        -0.8569
     16 H1          1.6132    2.0440   -0.3874 H         1 <0>         0.0640
     17 H2          0.2766    2.2925   -1.5363 H         1 <0>         0.0703
     18 H3         -0.0291    2.3721    0.2154 H         1 <0>         0.0789
     19 H4          0.5307   -0.0347    0.4225 H         1 <0>         0.0803
     20 H5         -0.8060    0.2138   -0.7264 H         1 <0>         0.0993
     21 H6          0.7964    0.0998   -2.6153 H         1 <0>         0.1657
     22 H7          2.1330   -0.1487   -1.4665 H         1 <0>         0.1266
     23 H8          0.8896   -3.8306    0.0341 H         1 <0>         0.1560
     24 H9          2.2552   -2.6933    0.1324 H         1 <0>         0.1245
     25 H10         0.6628   -2.2298    0.7787 H         1 <0>         0.1639
     26 H11         1.3428   -2.5727   -3.9006 H         1 <0>         0.2021
     27 H12         2.7415   -2.6659   -2.8037 H         1 <0>         0.1792
     28 H13         1.7592   -4.7552   -1.8098 H         1 <0>         0.1733
     29 H14         2.8723   -7.3534   -4.5925 H         1 <0>         0.4389
@<TRIPOS>BOND
     1    1    2 1
     2    1   16 1
     3    1   17 1
     4    1   18 1
     5    2    3 1
     6    2   19 1
     7    2   20 1
     8    3    4 1
     9    3   21 1
    10    3   22 1
    11    4    5 1
    12    4    6 1
    13    5   23 1
    14    5   24 1
    15    5   25 1
    16    6    7 1
    17    6   26 1
    18    6   27 1
    19    7    8 1
    20    7   12 1
    21    7   28 1
    22    8    9 2
    23    8   10 1
    24    8   11 1
    25   12   13 2
    26   12   14 1
    27   12   15 1
    28   15   29 1
@<TRIPOS>MOLECULE
CHEMBL235059__1
   30    29     0     0     0
SMALL
NO_CHARGES

@<TRIPOS>ATOM
      1 C1          0.0225    1.3611    0.3576 C.3       1 <0>        -0.1495
      2 C2          0.0093   -0.1648    0.2470 C.3       1 <0>        -0.1213
      3 C3          0.7500   -0.5906   -1.0222 C.3       1 <0>        -0.2452
      4 S1          0.7344   -2.3998   -1.1533 S.3       1 <0>         0.5684
      5 C4          1.5555   -3.1182    0.2960 C.3       1 <0>        -0.2796
      6 C5          1.6126   -2.9047   -2.6580 C.3       1 <0>        -0.2280
      7 C6          1.5037   -4.4214   -2.8276 C.3       1 <0>        -1.1024
      8 P1         -0.2337   -4.8742   -3.1437 P.3       1 <0>         2.1516
      9 O1         -0.2972   -6.3128   -3.7036 O.2       1 <0>        -0.8366
     10 O2         -1.0337   -4.7994   -1.8241 O.3       1 <0>        -0.9312
     11 O3         -0.8681   -3.8531   -4.2147 O.3       1 <0>        -0.8575
     12 P2          2.5354   -4.9513   -4.2340 P.3       1 <0>         2.1885
     13 O4          2.1264   -4.1633   -5.4984 O.2       1 <0>        -0.8788
     14 O5          4.0219   -4.6769   -3.9145 O.3       1 <0>        -0.9266
     15 O6          2.3237   -6.5264   -4.4915 O.3       1 <0>        -0.8451
     16 H1          1.0531    1.7132    0.4029 H         1 <0>         0.0633
     17 H2         -0.4709    1.7928   -0.5133 H         1 <0>         0.0695
     18 H3         -0.5052    1.6645    1.2618 H         1 <0>         0.0781
     19 H4          0.5027   -0.5965    1.1178 H         1 <0>         0.0795
     20 H5         -1.0213   -0.5169    0.2016 H         1 <0>         0.0990
     21 H6          0.2566   -0.1590   -1.8930 H         1 <0>         0.1626
     22 H7          1.7806   -0.2386   -0.9768 H         1 <0>         0.1238
     23 H8          2.6088   -2.8377    0.2930 H         1 <0>         0.1222
     24 H9          1.0825   -2.7444    1.2041 H         1 <0>         0.1595
     25 H10         1.4686   -4.2042    0.2617 H         1 <0>         0.1563
     26 H11         1.1682   -2.4097   -3.5215 H         1 <0>         0.1863
     27 H12         2.6624   -2.6225   -2.5780 H         1 <0>         0.1568
     28 H13         1.8479   -4.9143   -1.9184 H         1 <0>         0.1659
     29 H14        -1.8125   -3.9867   -4.3739 H         1 <0>         0.4370
     30 H15         2.8433   -6.8780   -5.2273 H         1 <0>         0.4334
@<TRIPOS>BOND
     1    1    2 1
     2    1   16 1
     3    1   17 1
     4    1   18 1
     5    2    3 1
     6    2   19 1
     7    2   20 1
     8    3    4 1
     9    3   21 1
    10    3   22 1
    11    4    5 1
    12    4    6 1
    13    5   23 1
    14    5   24 1
    15    5   25 1
    16    6    7 1
    17    6   26 1
    18    6   27 1
    19    7    8 1
    20    7   12 1
    21    7   28 1
    22    8    9 2
    23    8   10 1
    24    8   11 1
    25   11   29 1
    26   12   13 2
    27   12   14 1
    28   12   15 1
    29   15   30 1
@<TRIPOS>MOLECULE
CHEMBL235059__2
   29    28     0     0     0
SMALL
NO_CHARGES

@<TRIPOS>ATOM
      1 C1          0.4439    2.1087   -1.3609 C.3       1 <0>        -0.1490
      2 C2          0.3345    0.6154   -1.0463 C.3       1 <0>        -0.1209
      3 C3          1.0453   -0.1889   -2.1366 C.3       1 <0>        -0.2546
      4 S1          0.9157   -1.9594   -1.7635 S.3       1 <0>         0.6250
      5 C4         -0.8330   -2.4379   -1.7019 C.3       1 <0>        -0.2891
      6 C5          1.7584   -2.9130   -3.0562 C.3       1 <0>        -0.2465
      7 C6          1.5001   -4.4054   -2.8393 C.3       1 <0>        -1.0269
      8 P1          2.2320   -5.3546   -4.2128 P.3       1 <0>         1.9672
      9 O1          1.5428   -4.9427   -5.5580 O.2       1 <0>        -0.7302
     10 O2          3.7666   -5.0510   -4.2979 O.3       1 <0>        -0.6179
     11 O3          2.0158   -6.8860   -3.9628 O.3       1 <0>        -0.6038
     12 P2          2.2569   -4.9308   -1.2663 P.3       1 <0>         2.1390
     13 O4          3.6670   -4.3119   -1.1412 O.2       1 <0>        -0.9302
     14 O5          1.3789   -4.4540   -0.0878 O.3       1 <0>        -0.9693
     15 O6          2.3708   -6.5364   -1.2354 O.3       1 <0>        -0.8649
     16 H1          1.4946    2.3963   -1.3979 H         1 <0>         0.0698
     17 H2         -0.0226    2.3120   -2.3248 H         1 <0>         0.0623
     18 H3         -0.0625    2.6817   -0.5842 H         1 <0>         0.0783
     19 H4          0.8010    0.4121   -0.0823 H         1 <0>         0.1008
     20 H5         -0.7162    0.3279   -1.0092 H         1 <0>         0.0799
     21 H6          0.5788    0.0144   -3.1005 H         1 <0>         0.1219
     22 H7          2.0960    0.0986   -2.1736 H         1 <0>         0.1648
     23 H8         -1.3205   -1.9270   -0.8716 H         1 <0>         0.1671
     24 H9         -1.3193   -2.1583   -2.6365 H         1 <0>         0.1192
     25 H10        -0.9099   -3.5160   -1.5606 H         1 <0>         0.1524
     26 H11         1.3771   -2.6165   -4.0333 H         1 <0>         0.1504
     27 H12         2.8300   -2.7193   -3.0103 H         1 <0>         0.1988
     28 H13         0.4259   -4.5868   -2.8042 H         1 <0>         0.1677
     29 H14         2.7656   -6.8872   -0.4254 H         1 <0>         0.4386
@<TRIPOS>BOND
     1    1    2 1
     2    1   16 1
     3    1   17 1
     4    1   18 1
     5    2    3 1
     6    2   19 1
     7    2   20 1
     8    3    4 1
     9    3   21 1
    10    3   22 1
    11    4    5 1
    12    4    6 1
    13    5   23 1
    14    5   24 1
    15    5   25 1
    16    6    7 1
    17    6   26 1
    18    6   27 1
    19    7    8 1
    20    7   12 1
    21    7   28 1
    22    8    9 2
    23    8   10 1
    24    8   11 1
    25   12   13 2
    26   12   14 1
    27   12   15 1
    28   15   29 1
@<TRIPOS>MOLECULE
CHEMBL235059__3
   30    29     0     0     0
SMALL
NO_CHARGES

@<TRIPOS>ATOM
      1 C1          0.3947    1.9177   -0.6945 C.3       1 <0>        -0.1492
      2 C2          0.3810    0.4012   -0.4920 C.3       1 <0>        -0.1213
      3 C3          0.9614   -0.2840   -1.7308 C.3       1 <0>        -0.2499
      4 S1          0.9451   -2.0820   -1.4907 S.3       1 <0>         0.5917
      5 C4         -0.7610   -2.6422   -1.2333 C.3       1 <0>        -0.2825
      6 C5          1.6332   -2.8944   -2.9594 C.3       1 <0>        -0.2284
      7 C6          1.4645   -4.4096   -2.8303 C.3       1 <0>        -1.1080
      8 P1          1.9949   -5.2142   -4.3777 P.3       1 <0>         2.1720
      9 O1          2.1550   -6.7324   -4.1401 O.2       1 <0>        -0.8042
     10 O2          0.9328   -4.9736   -5.4736 O.3       1 <0>        -0.9248
     11 O3          3.4034   -4.5934   -4.8499 O.3       1 <0>        -0.8570
     12 P2          2.4847   -5.0190   -1.4478 P.3       1 <0>         2.1610
     13 O4          3.8783   -4.3544   -1.5042 O.2       1 <0>        -0.9063
     14 O5          1.8000   -4.6670   -0.1083 O.3       1 <0>        -0.9331
     15 O6          2.6469   -6.6166   -1.5641 O.3       1 <0>        -0.8439
     16 H1          1.4198    2.2543   -0.8492 H         1 <0>         0.0692
     17 H2         -0.2071    2.1732   -1.5667 H         1 <0>         0.0624
     18 H3         -0.0188    2.4058    0.1880 H         1 <0>         0.0779
     19 H4          0.9828    0.1456    0.3801 H         1 <0>         0.0995
     20 H5         -0.6442    0.0646   -0.3374 H         1 <0>         0.0797
     21 H6          0.3595   -0.0285   -2.6029 H         1 <0>         0.1215
     22 H7          1.9865    0.0526   -1.8855 H         1 <0>         0.1624
     23 H8         -1.3808   -2.3144   -2.0678 H         1 <0>         0.1197
     24 H9         -0.7807   -3.7303   -1.1716 H         1 <0>         0.1516
     25 H10        -1.1465   -2.2186   -0.3060 H         1 <0>         0.1643
     26 H11         1.1075   -2.5447   -3.8479 H         1 <0>         0.1475
     27 H12         2.6926   -2.6528   -3.0454 H         1 <0>         0.1921
     28 H13         0.4171   -4.6436   -2.6396 H         1 <0>         0.1651
     29 H14         3.7468   -4.9757   -5.6690 H         1 <0>         0.4382
     30 H15         3.1794   -7.0101   -0.8594 H         1 <0>         0.4327
@<TRIPOS>BOND
     1    1    2 1
     2    1   16 1
     3    1   17 1
     4    1   18 1
     5    2    3 1
     6    2   19 1
     7    2   20 1
     8    3    4 1
     9    3   21 1
    10    3   22 1
    11    4    5 1
    12    4    6 1
    13    5   23 1
    14    5   24 1
    15    5   25 1
    16    6    7 1
    17    6   26 1
    18    6   27 1
    19    7    8 1
    20    7   12 1
    21    7   28 1
    22    8    9 2
    23    8   10 1
    24    8   11 1
    25   11   29 1
    26   12   13 2
    27   12   14 1
    28   12   15 1
    29   15   30 1
@<TRIPOS>MOLECULE
CHEMBL293116
   23    23     0     0     0
SMALL
USER_CHARGES

@<TRIPOS>ATOM
      1 C1         -0.0184    1.5028    0.0103 C.3       1 <0>        -0.0598
      2 C2          0.0021   -0.0041    0.0020 C.2       1 <0>         0.0953
      3 C3          0.0059   -0.7050   -1.1571 C.2       1 <0>        -0.3955
      4 S1          0.0324   -2.3782   -0.5350 S.3       1 <0>         0.2005
      5 C4          0.0358   -2.0159    1.1085 C.2       1 <0>         0.3317
      6 N1          0.0227   -0.7000    1.1252 N.2       1 <0>        -0.6443
      7 N2          0.0535   -2.8908    2.1834 N.pl3     1 <0>        -0.5816
      8 C5          0.0730   -4.3371    1.9505 C.3       1 <0>        -1.0333
      9 P1          1.7379   -4.8426    1.4066 P.3       1 <0>         2.1720
     10 O1          2.1031   -4.0949    0.0792 O.2       1 <0>        -1.1520
     11 O2          2.7827   -4.4781    2.5157 O.3       1 <0>        -1.1471
     12 O3          1.7588   -6.3892    1.1576 O.3       1 <0>        -1.1670
     13 P2         -0.3520   -5.2071    3.4951 P.3       1 <0>         2.2854
     14 O4          0.6784   -4.8477    4.5889 O.2       1 <0>        -1.0850
     15 O5         -1.7630   -4.7787    3.9561 O.3       1 <0>        -1.1280
     16 O6         -0.3306   -6.7965    3.2391 O.3       1 <0>        -0.8770
     17 H1          1.0042    1.8801    0.0026 H         1 <0>         0.0562
     18 H2         -0.5455    1.8639   -0.8728 H         1 <0>         0.0542
     19 H3         -0.5286    1.8543    0.9071 H         1 <0>         0.0567
     20 H4         -0.0046   -0.3495   -2.1769 H         1 <0>         0.1602
     21 H5          0.0530   -2.5455    3.0899 H         1 <0>         0.4046
     22 H6         -0.6539   -4.5906    1.1789 H         1 <0>         0.0647
     23 H7         -0.5479   -7.3236    4.0201 H         1 <0>         0.3893
@<TRIPOS>BOND
     1    1    2 1
     2    1   17 1
     3    1   18 1
     4    1   19 1
     5    2    6 1
     6    2    3 2
     7    3    4 1
     8    3   20 1
     9    4    5 1
    10    5    6 2
    11    5    7 1
    12    7    8 1
    13    7   21 1
    14    8    9 1
    15    8   13 1
    16    8   22 1
    17    9   10 2
    18    9   11 1
    19    9   12 1
    20   13   14 2
    21   13   15 1
    22   13   16 1
    23   16   23 1
@<TRIPOS>MOLECULE
CHEMBL293116__1
   24    24     0     0     0
SMALL
USER_CHARGES

@<TRIPOS>ATOM
      1 C1         -0.0184    1.5028    0.0103 C.3       1 <0>        -0.0666
      2 C2          0.0021   -0.0041    0.0020 C.2       1 <0>         0.0961
      3 C3          0.0059   -0.7050   -1.1571 C.2       1 <0>        -0.3542
      4 S1          0.0324   -2.3782   -0.5350 S.3       1 <0>         0.1910
      5 C4          0.0358   -2.0159    1.1085 C.2       1 <0>         0.3194
      6 N1          0.0227   -0.7000    1.1252 N.2       1 <0>        -0.6237
      7 N2          0.0535   -2.8908    2.1834 N.pl3     1 <0>        -0.6131
      8 C5          0.0730   -4.3371    1.9505 C.3       1 <0>        -1.0318
      9 P1          0.5376   -5.1944    3.4908 P.3       1 <0>         2.2558
     10 O1          1.9403   -4.7259    3.9380 O.2       1 <0>        -1.0981
     11 O2         -0.4918   -4.8644    4.5946 O.3       1 <0>        -1.0777
     12 O3          0.5590   -6.7838    3.2348 O.3       1 <0>        -0.8791
     13 P2         -1.5821   -4.8899    1.4228 P.3       1 <0>         2.2381
     14 O4         -1.9758   -4.1633    0.1174 O.2       1 <0>        -1.0769
     15 O5         -1.5615   -6.4151    1.1772 O.3       1 <0>        -1.0835
     16 O6         -2.6548   -4.5460    2.5730 O.3       1 <0>        -0.8762
     17 H1          1.0042    1.8801    0.0026 H         1 <0>         0.0605
     18 H2         -0.5455    1.8639   -0.8728 H         1 <0>         0.0631
     19 H3         -0.5286    1.8543    0.9071 H         1 <0>         0.0634
     20 H4         -0.0046   -0.3495   -2.1769 H         1 <0>         0.1729
     21 H5          0.0530   -2.5455    3.0899 H         1 <0>         0.4124
     22 H6          0.7993   -4.5699    1.1718 H         1 <0>         0.1046
     23 H7          0.7989   -7.3044    4.0136 H         1 <0>         0.4042
     24 H8         -3.5594   -4.8129    2.3597 H         1 <0>         0.3994
@<TRIPOS>BOND
     1    1    2 1
     2    1   17 1
     3    1   18 1
     4    1   19 1
     5    2    6 1
     6    2    3 2
     7    3    4 1
     8    3   20 1
     9    4    5 1
    10    5    6 2
    11    5    7 1
    12    7    8 1
    13    7   21 1
    14    8    9 1
    15    8   13 1
    16    8   22 1
    17    9   10 2
    18    9   11 1
    19    9   12 1
    20   12   23 1
    21   13   14 2
    22   13   15 1
    23   13   16 1
    24   16   24 1
@<TRIPOS>MOLECULE
CHEMBL54004
   40    39     0     0     0
SMALL
USER_CHARGES

@<TRIPOS>ATOM
      1 C1         -0.0187    1.5258    0.0104 C.3       1 <0>        -0.1501
      2 C2          0.0021   -0.0041    0.0020 C.3       1 <0>        -0.1264
      3 C3         -1.4333   -0.5336    0.0129 C.3       1 <0>        -0.1192
      4 C4         -1.4126   -2.0635    0.0045 C.3       1 <0>        -0.1208
      5 C5         -2.8479   -2.5931    0.0153 C.3       1 <0>        -0.1170
      6 C6         -2.8272   -4.1229    0.0069 C.3       1 <0>        -0.1160
      7 C7         -4.2626   -4.6525    0.0178 C.3       1 <0>        -0.1132
      8 C8         -4.2418   -6.1823    0.0094 C.3       1 <0>        -0.1385
      9 C9         -5.6772   -6.7119    0.0202 C.3       1 <0>        -0.0835
     10 C10        -5.6565   -8.2417    0.0118 C.3       1 <0>        -1.0336
     11 O1         -4.9876   -8.7026   -1.1639 O.3       1 <0>        -0.5178
     12 P1         -4.7748   -8.8456    1.4887 P.3       1 <0>         2.2253
     13 O2         -3.2716   -8.4103    1.4139 O.2       1 <0>        -1.1791
     14 O3         -5.4314   -8.2368    2.7743 O.3       1 <0>        -1.1655
     15 O4         -4.8635  -10.4087    1.5472 O.3       1 <0>        -1.1783
     16 P2         -7.3667   -8.8727    0.0247 P.3       1 <0>         2.2727
     17 O5         -8.0899   -8.3745    1.2959 O.2       1 <0>        -1.0981
     18 O6         -8.1140   -8.3609   -1.2269 O.3       1 <0>        -1.1372
     19 O7         -7.3449  -10.4826    0.0159 O.3       1 <0>        -0.8692
     20 H1          1.0039    1.9031    0.0027 H         1 <0>         0.0474
     21 H2         -0.5459    1.8868   -0.8726 H         1 <0>         0.0505
     22 H3         -0.5289    1.8773    0.9072 H         1 <0>         0.0519
     23 H4          0.5123   -0.3556   -0.8948 H         1 <0>         0.0586
     24 H5          0.5293   -0.3651    0.8851 H         1 <0>         0.0608
     25 H6         -1.9435   -0.1821    0.9097 H         1 <0>         0.0596
     26 H7         -1.9605   -0.1726   -0.8702 H         1 <0>         0.0568
     27 H8         -0.9024   -2.4150   -0.8923 H         1 <0>         0.0574
     28 H9         -0.8854   -2.4246    0.8875 H         1 <0>         0.0622
     29 H10        -3.3581   -2.2415    0.9121 H         1 <0>         0.0583
     30 H11        -3.3751   -2.2320   -0.8677 H         1 <0>         0.0524
     31 H12        -2.3170   -4.4744   -0.8899 H         1 <0>         0.0526
     32 H13        -2.3000   -4.4840    0.8900 H         1 <0>         0.0667
     33 H14        -4.7728   -4.3010    0.9146 H         1 <0>         0.0528
     34 H15        -4.7898   -4.2914   -0.8653 H         1 <0>         0.0364
     35 H16        -3.7316   -6.5338   -0.8874 H         1 <0>         0.0404
     36 H17        -3.7146   -6.5434    0.8924 H         1 <0>         0.1237
     37 H18        -6.1874   -6.3604    0.9170 H         1 <0>         0.0663
     38 H19        -6.2044   -6.3508   -0.8628 H         1 <0>         0.0209
     39 H20        -5.4029   -8.4183   -1.9896 H         1 <0>         0.3105
     40 H21        -8.2228  -10.8879    0.0221 H         1 <0>         0.3792
@<TRIPOS>BOND
     1    1    2 1
     2    1   20 1
     3    1   21 1
     4    1   22 1
     5    2    3 1
     6    2   23 1
     7    2   24 1
     8    3    4 1
     9    3   25 1
    10    3   26 1
    11    4    5 1
    12    4   27 1
    13    4   28 1
    14    5    6 1
    15    5   29 1
    16    5   30 1
    17    6    7 1
    18    6   31 1
    19    6   32 1
    20    7    8 1
    21    7   33 1
    22    7   34 1
    23    8    9 1
    24    8   35 1
    25    8   36 1
    26    9   10 1
    27    9   37 1
    28    9   38 1
    29   10   11 1
    30   10   12 1
    31   10   16 1
    32   11   39 1
    33   12   13 2
    34   12   14 1
    35   12   15 1
    36   16   17 2
    37   16   18 1
    38   16   19 1
    39   19   40 1
@<TRIPOS>MOLECULE
CHEMBL54004__1
   41    40     0     0     0
SMALL
USER_CHARGES

@<TRIPOS>ATOM
      1 C1         -0.0187    1.5258    0.0104 C.3       1 <0>        -0.1515
      2 C2          0.0021   -0.0041    0.0020 C.3       1 <0>        -0.1262
      3 C3          0.7421   -0.5109    1.2415 C.3       1 <0>        -0.1199
      4 C4          0.7628   -2.0407    1.2331 C.3       1 <0>        -0.1207
      5 C5          1.5028   -2.5476    2.4727 C.3       1 <0>        -0.1185
      6 C6          1.5236   -4.0774    2.4642 C.3       1 <0>        -0.1166
      7 C7          2.2636   -4.5842    3.7038 C.3       1 <0>        -0.1152
      8 C8          2.2843   -6.1141    3.6954 C.3       1 <0>        -0.1500
      9 C9          3.0243   -6.6209    4.9349 C.3       1 <0>        -0.1027
     10 C10         3.0450   -8.1508    4.9265 C.3       1 <0>        -1.0366
     11 O1          1.7044   -8.6454    4.9366 O.3       1 <0>        -0.5074
     12 P1          3.8983   -8.7387    3.4266 P.3       1 <0>         2.2851
     13 O2          3.9193  -10.2835    3.4181 O.2       1 <0>        -1.0920
     14 O3          3.1511   -8.2269    2.1749 O.3       1 <0>        -1.0929
     15 O4          5.4088   -8.1814    3.4152 O.3       1 <0>        -0.8855
     16 P2          3.9267   -8.7547    6.4034 P.3       1 <0>         2.2448
     17 O5          5.3762   -8.2199    6.3924 O.2       1 <0>        -1.0885
     18 O6          3.2036   -8.2564    7.6745 O.3       1 <0>        -1.1077
     19 O7          3.9486  -10.3645    6.3945 O.3       1 <0>        -0.8742
     20 H1          1.0039    1.9031    0.0027 H         1 <0>         0.0523
     21 H2         -0.5459    1.8868   -0.8726 H         1 <0>         0.0496
     22 H3         -0.5289    1.8773    0.9072 H         1 <0>         0.0515
     23 H4         -1.0205   -0.3814    0.0098 H         1 <0>         0.0593
     24 H5          0.5123   -0.3556   -0.8948 H         1 <0>         0.0605
     25 H6          1.7647   -0.1336    1.2338 H         1 <0>         0.0596
     26 H7          0.2319   -0.1594    2.1383 H         1 <0>         0.0582
     27 H8         -0.2598   -2.4180    1.2409 H         1 <0>         0.0589
     28 H9          1.2730   -2.3923    0.3363 H         1 <0>         0.0617
     29 H10         2.5254   -2.1703    2.4649 H         1 <0>         0.0584
     30 H11         0.9926   -2.1961    3.3695 H         1 <0>         0.0553
     31 H12         0.5010   -4.4547    2.4720 H         1 <0>         0.0563
     32 H13         2.0337   -4.4289    1.5675 H         1 <0>         0.0656
     33 H14         3.2861   -4.2070    3.6960 H         1 <0>         0.0533
     34 H15         1.7534   -4.2327    4.6006 H         1 <0>         0.0449
     35 H16         1.2617   -6.4914    3.7031 H         1 <0>         0.0537
     36 H17         2.7945   -6.4656    2.7986 H         1 <0>         0.1212
     37 H18         4.0469   -6.2436    4.9271 H         1 <0>         0.0658
     38 H19         2.5141   -6.2694    5.8317 H         1 <0>         0.0496
     39 H20         1.1899   -8.3712    5.7081 H         1 <0>         0.3440
     40 H21         5.9233   -8.4555    2.6437 H         1 <0>         0.4004
     41 H22         4.4028  -10.7558    7.1532 H         1 <0>         0.3959
@<TRIPOS>BOND
     1    1    2 1
     2    1   20 1
     3    1   21 1
     4    1   22 1
     5    2    3 1
     6    2   23 1
     7    2   24 1
     8    3    4 1
     9    3   25 1
    10    3   26 1
    11    4    5 1
    12    4   27 1
    13    4   28 1
    14    5    6 1
    15    5   29 1
    16    5   30 1
    17    6    7 1
    18    6   31 1
    19    6   32 1
    20    7    8 1
    21    7   33 1
    22    7   34 1
    23    8    9 1
    24    8   35 1
    25    8   36 1
    26    9   10 1
    27    9   37 1
    28    9   38 1
    29   10   11 1
    30   10   12 1
    31   10   16 1
    32   11   39 1
    33   12   13 2
    34   12   14 1
    35   12   15 1
    36   15   40 1
    37   16   17 2
    38   16   18 1
    39   16   19 1
    40   19   41 1
@<TRIPOS>MOLECULE
CHEMBL55358
   25    24     0     0     0
SMALL
USER_CHARGES

@<TRIPOS>ATOM
      1 C1         -0.3766    1.9263   -0.9175 C.3       1 <0>        -0.1652
      2 C2         -0.4068    0.3966   -0.9101 C.3       1 <0>        -0.0313
      3 C3          0.5676   -0.1378   -1.9616 C.3       1 <0>        -0.1061
      4 C4          0.6843   -1.6571   -1.8235 C.3       1 <0>        -1.0410
      5 O1         -0.6111   -2.2475   -1.9474 O.3       1 <0>        -0.5102
      6 P1          1.7749   -2.3044   -3.1329 P.3       1 <0>         2.1874
      7 O2          1.1122   -2.0621   -4.5317 O.2       1 <0>        -1.1776
      8 O3          3.1558   -1.5667   -3.0745 O.3       1 <0>        -1.1475
      9 O4          1.9941   -3.8407   -2.9180 O.3       1 <0>        -1.1556
     10 P2          1.3852   -2.0668   -0.1912 P.3       1 <0>         2.2691
     11 O5          2.7688   -1.3958   -0.0417 O.2       1 <0>        -1.0773
     12 O6          0.4410   -1.5527    0.9184 O.3       1 <0>        -1.1167
     13 O7          1.5462   -3.6634   -0.0617 O.3       1 <0>        -0.8664
     14 N1         -1.7655   -0.0678   -1.2206 N.4       1 <0>        -0.6177
     15 H1          0.6315    2.2709   -0.6871 H         1 <0>         0.1007
     16 H2         -0.6690    2.2907   -1.9023 H         1 <0>         0.0636
     17 H3         -1.0709    2.3070   -0.1684 H         1 <0>         0.0651
     18 H4         -0.1145    0.0322    0.0747 H         1 <0>         0.1939
     19 H5          0.1992    0.1092   -2.9573 H         1 <0>         0.0713
     20 H6          1.5472    0.3168   -1.8135 H         1 <0>         0.1200
     21 H7         -1.0987   -2.3047   -1.1142 H         1 <0>         0.2960
     22 H8          1.9146   -3.9543    0.7837 H         1 <0>         0.3929
     23 H9         -1.9048   -0.0559   -2.2199 H         1 <0>         0.4225
     24 H10        -1.8866   -1.0081   -0.8753 H         1 <0>         0.4253
     25 H11        -2.4382    0.5416   -0.7800 H         1 <0>         0.4048
@<TRIPOS>BOND
     1    1    2 1
     2    1   15 1
     3    1   16 1
     4    1   17 1
     5    2    3 1
     6    2   14 1
     7    2   18 1
     8    3    4 1
     9    3   19 1
    10    3   20 1
    11    4    5 1
    12    4    6 1
    13    4   10 1
    14    5   21 1
    15    6    7 2
    16    6    8 1
    17    6    9 1
    18   10   11 2
    19   10   12 1
    20   10   13 1
    21   13   22 1
    22   14   23 1
    23   14   24 1
    24   14   25 1
@<TRIPOS>MOLECULE
CHEMBL55358__1
   26    25     0     0     0
SMALL
USER_CHARGES

@<TRIPOS>ATOM
      1 C1         -0.1195    2.1009    1.4779 C.3       1 <0>        -0.1699
      2 C2         -0.2849    0.5825    1.5681 C.3       1 <0>        -0.0249
      3 C3          0.5997   -0.0902    0.5165 C.3       1 <0>        -0.1230
      4 C4          0.5857   -1.6049    0.7317 C.3       1 <0>        -1.0528
      5 O1         -0.7607   -2.0810    0.6800 O.3       1 <0>        -0.5005
      6 P1          1.5667   -2.4134   -0.5749 P.3       1 <0>         2.2683
      7 O2          1.4615   -3.9474   -0.4233 O.2       1 <0>        -1.0741
      8 O3          1.0246   -1.9944   -1.9597 O.3       1 <0>        -1.0932
      9 O4          3.1076   -1.9656   -0.4439 O.3       1 <0>        -0.8862
     10 P2          1.3057   -1.9939    2.3607 P.3       1 <0>         2.2343
     11 O5          2.7490   -1.4470    2.4298 O.2       1 <0>        -1.0624
     12 O6          0.4531   -1.3390    3.4703 O.3       1 <0>        -1.0865
     13 O7          1.3260   -3.5900    2.5712 O.3       1 <0>        -0.8729
     14 N1         -1.6896    0.2277    1.3259 N.4       1 <0>        -0.6209
     15 H1         -0.4139    2.4400    0.4847 H         1 <0>         0.0683
     16 H2         -0.7497    2.5802    2.2270 H         1 <0>         0.0747
     17 H3          0.9228    2.3642    1.6576 H         1 <0>         0.1027
     18 H4          0.0095    0.2434    2.5613 H         1 <0>         0.1969
     19 H5          0.2191    0.1389   -0.4788 H         1 <0>         0.0881
     20 H6          1.6205    0.2806    0.6094 H         1 <0>         0.1185
     21 H7         -1.2206   -2.0532    1.5302 H         1 <0>         0.3280
     22 H8          3.6893   -2.3587   -1.1089 H         1 <0>         0.4109
     23 H9          1.6970   -3.8702    3.4191 H         1 <0>         0.4100
     24 H10        -1.8638    0.2030    0.3324 H         1 <0>         0.4247
     25 H11        -1.8806   -0.6798    1.7235 H         1 <0>         0.4261
     26 H12        -2.2893    0.9160    1.7556 H         1 <0>         0.4162
@<TRIPOS>BOND
     1    1    2 1
     2    1   15 1
     3    1   16 1
     4    1   17 1
     5    2    3 1
     6    2   14 1
     7    2   18 1
     8    3    4 1
     9    3   19 1
    10    3   20 1
    11    4    5 1
    12    4    6 1
    13    4   10 1
    14    5   21 1
    15    6    7 2
    16    6    8 1
    17    6    9 1
    18    9   22 1
    19   10   11 2
    20   10   12 1
    21   10   13 1
    22   13   23 1
    23   14   24 1
    24   14   25 1
    25   14   26 1
@<TRIPOS>MOLECULE
CHEMBL55358__2
   25    24     0     0     0
SMALL
USER_CHARGES

@<TRIPOS>ATOM
      1 C1          0.1750    1.4380    0.4521 C.3       1 <0>        -0.1668
      2 C2         -0.0521   -0.0631    0.2620 C.3       1 <0>        -0.0078
      3 C3         -1.4722   -0.3027   -0.2545 C.3       1 <0>        -0.1102
      4 C4         -1.7116   -1.8058   -0.4097 C.3       1 <0>        -1.0481
      5 O1         -0.8562   -2.3214   -1.4317 O.3       1 <0>        -0.5312
      6 P1         -1.3484   -2.6450    1.1674 P.3       1 <0>         2.1929
      7 O2          0.1763   -2.5000    1.4970 O.2       1 <0>        -1.1706
      8 O3         -2.1947   -1.9927    2.3131 O.3       1 <0>        -1.1406
      9 O4         -1.7146   -4.1635    1.0474 O.3       1 <0>        -1.1505
     10 P2         -3.4514   -2.0999   -0.8679 P.3       1 <0>         2.2778
     11 O5         -4.3763   -1.5425    0.2371 O.2       1 <0>        -1.0867
     12 O6         -3.7593   -1.3887   -2.2044 O.3       1 <0>        -1.1260
     13 O7         -3.7034   -3.6817   -1.0312 O.3       1 <0>        -0.8717
     14 N1          0.9172   -0.5857   -0.7102 N.4       1 <0>        -0.6090
     15 H1          1.1867    1.6087    0.8201 H         1 <0>         0.0650
     16 H2          0.0443    1.9489   -0.5018 H         1 <0>         0.0575
     17 H3         -0.5442    1.8258    1.1735 H         1 <0>         0.0962
     18 H4          0.0786   -0.5740    1.2159 H         1 <0>         0.1901
     19 H5         -2.1909    0.1084    0.4545 H         1 <0>         0.1171
     20 H6         -1.5947    0.1864   -1.2208 H         1 <0>         0.0552
     21 H7         -0.9944   -1.9193   -2.3002 H         1 <0>         0.3265
     22 H8         -4.6103   -3.9124   -1.2749 H         1 <0>         0.3905
     23 H9          1.8479   -0.3020   -0.4430 H         1 <0>         0.4052
     24 H10         0.8650   -1.5932   -0.7289 H         1 <0>         0.4474
     25 H11         0.7045   -0.2209   -1.6266 H         1 <0>         0.3979
@<TRIPOS>BOND
     1    1    2 1
     2    1   15 1
     3    1   16 1
     4    1   17 1
     5    2    3 1
     6    2   14 1
     7    2   18 1
     8    3    4 1
     9    3   19 1
    10    3   20 1
    11    4    5 1
    12    4    6 1
    13    4   10 1
    14    5   21 1
    15    6    7 2
    16    6    8 1
    17    6    9 1
    18   10   11 2
    19   10   12 1
    20   10   13 1
    21   13   22 1
    22   14   23 1
    23   14   24 1
    24   14   25 1
@<TRIPOS>MOLECULE
CHEMBL55358__3
   26    25     0     0     0
SMALL
USER_CHARGES

@<TRIPOS>ATOM
      1 C1         -0.3738    1.4526   -0.1232 C.3       1 <0>        -0.1738
      2 C2         -0.1717   -0.0629   -0.1808 C.3       1 <0>        -0.0020
      3 C3          1.0512   -0.3819   -1.0430 C.3       1 <0>        -0.1337
      4 C4          1.2276   -1.8989   -1.1366 C.3       1 <0>        -1.0556
      5 O1          1.5332   -2.4235    0.1570 O.3       1 <0>        -0.5206
      6 P1         -0.3147   -2.6533   -1.7494 P.3       1 <0>         2.2751
      7 O2         -0.0909   -4.1636   -1.9855 O.2       1 <0>        -1.0675
      8 O3         -1.4353   -2.4559   -0.7042 O.3       1 <0>        -1.0968
      9 O4         -0.7423   -1.9513   -3.1338 O.3       1 <0>        -0.8862
     10 P2          2.5900   -2.2826   -2.2854 P.3       1 <0>         2.2489
     11 O5          2.2595   -1.7153   -3.6840 O.2       1 <0>        -1.0778
     12 O6          3.8971   -1.6432   -1.7661 O.3       1 <0>        -1.0958
     13 O7          2.7756   -3.8788   -2.3838 O.3       1 <0>        -0.8730
     14 N1          0.0385   -0.5808    1.1778 N.4       1 <0>        -0.6161
     15 H1          0.5094    1.9207    0.3115 H         1 <0>         0.0698
     16 H2         -0.5297    1.8369   -1.1313 H         1 <0>         0.0998
     17 H3         -1.2451    1.6799    0.4911 H         1 <0>         0.0753
     18 H4         -1.0549   -0.5310   -0.6155 H         1 <0>         0.1716
     19 H5          0.9086    0.0296   -2.0422 H         1 <0>         0.1219
     20 H6          1.9395    0.0599   -0.5915 H         1 <0>         0.0850
     21 H7          2.3433   -2.0655    0.5453 H         1 <0>         0.3594
     22 H8         -1.5566   -2.3037   -3.5184 H         1 <0>         0.4131
     23 H9          3.4852   -4.1563   -2.9793 H         1 <0>         0.4057
     24 H10        -0.7105   -0.2672    1.7768 H         1 <0>         0.4168
     25 H11         0.0511   -1.5894    1.1550 H         1 <0>         0.4466
     26 H12         0.9191   -0.2413    1.5346 H         1 <0>         0.4099
@<TRIPOS>BOND
     1    1    2 1
     2    1   15 1
     3    1   16 1
     4    1   17 1
     5    2    3 1
     6    2   14 1
     7    2   18 1
     8    3    4 1
     9    3   19 1
    10    3   20 1
    11    4    5 1
    12    4    6 1
    13    4   10 1
    14    5   21 1
    15    6    7 2
    16    6    8 1
    17    6    9 1
    18    9   22 1
    19   10   11 2
    20   10   12 1
    21   10   13 1
    22   13   23 1
    23   14   24 1
    24   14   25 1
    25   14   26 1
@<TRIPOS>MOLECULE
CHEMBL924
   24    24     0     0     0
SMALL
USER_CHARGES

@<TRIPOS>ATOM
      1 C1         -0.0161    1.3371    0.0094 C.2       1 <0>        -0.0737
      2 C2          1.2587    1.7711   -0.0004 C.2       1 <0>         0.1498
      3 N1          2.0558    0.6583   -0.0140 N.pl3     1 <0>        -0.3745
      4 C3          1.2397   -0.4176   -0.0120 C.cat     1 <0>         0.2406
      5 N2          0.0021   -0.0041    0.0020 N.pl3     1 <0>        -0.4786
      6 C4          3.5206    0.6384   -0.0281 C.3       1 <0>         0.0924
      7 C5          4.0443    0.6237    1.4094 C.3       1 <0>        -1.0263
      8 O1          3.5585   -0.5400    2.0814 O.3       1 <0>        -0.4899
      9 P1          3.4652    2.1157    2.2823 P.3       1 <0>         2.1813
     10 O2          3.9977    3.3916    1.5455 O.2       1 <0>        -1.1524
     11 O3          1.8988    2.1370    2.2974 O.3       1 <0>        -1.1434
     12 O4          4.0015    2.1007    3.7543 O.3       1 <0>        -1.1336
     13 P2          5.8670    0.5990    1.3918 P.3       1 <0>         2.2548
     14 O5          6.3958    0.5842    2.8434 O.2       1 <0>        -1.0648
     15 O6          6.3578   -0.6655    0.6520 O.3       1 <0>        -1.1160
     16 O7          6.4143    1.9101    0.6346 O.3       1 <0>        -0.8803
     17 H1         -0.8984    1.9597    0.0252 H         1 <0>         0.2014
     18 H2          1.5887    2.7994    0.0016 H         1 <0>         0.2106
     19 H3          1.5585   -1.4495   -0.0206 H         1 <0>         0.2318
     20 H4          3.8668   -0.2536   -0.5501 H         1 <0>         0.0931
     21 H5          3.8911    1.5261   -0.5408 H         1 <0>         0.1169
     22 H6          3.8286   -1.3728    1.6708 H         1 <0>         0.3234
     23 H7          7.3787    1.9634    0.5875 H         1 <0>         0.3974
     24 H8         -0.7811   -0.5763    0.0069 H         1 <0>         0.4400
@<TRIPOS>BOND
     1    1    5 1
     2    1    2 2
     3    1   17 1
     4    2    3 1
     5    2   18 1
     6    3    4 1
     7    3    6 1
     8    4    5 2
     9    4   19 1
    10    5   24 1
    11    6    7 1
    12    6   20 1
    13    6   21 1
    14    7    8 1
    15    7    9 1
    16    7   13 1
    17    8   22 1
    18    9   10 2
    19    9   11 1
    20    9   12 1
    21   13   14 2
    22   13   15 1
    23   13   16 1
    24   16   23 1
@<TRIPOS>MOLECULE
CHEMBL924__1
   25    25     0     0     0
SMALL
USER_CHARGES

@<TRIPOS>ATOM
      1 C1         -0.0161    1.3371    0.0094 C.2       1 <0>        -0.0465
      2 C2          1.2587    1.7711   -0.0004 C.2       1 <0>         0.1297
      3 N1          2.0558    0.6583   -0.0140 N.pl3     1 <0>        -0.3879
      4 C3          1.2397   -0.4176   -0.0120 C.cat     1 <0>         0.2566
      5 N2          0.0021   -0.0041    0.0020 N.pl3     1 <0>        -0.4766
      6 C4          3.5206    0.6384   -0.0281 C.3       1 <0>         0.1109
      7 C5          4.0443    0.6237    1.4094 C.3       1 <0>        -1.0469
      8 O1          3.5585   -0.5400    2.0814 O.3       1 <0>        -0.5165
      9 P1          5.8670    0.5990    1.3918 P.3       1 <0>         2.2229
     10 O2          6.3941    1.9153    0.7783 O.2       1 <0>        -1.0481
     11 O3          6.4162    0.4512    2.8980 O.3       1 <0>        -0.8862
     12 O4          6.3577   -0.5966    0.5452 O.3       1 <0>        -1.0860
     13 P2          3.4652    2.1157    2.2823 P.3       1 <0>         2.2619
     14 O5          3.9904    3.3740    1.5557 O.2       1 <0>        -1.0559
     15 O6          1.9204    2.1367    2.2972 O.3       1 <0>        -1.0853
     16 O7          4.0163    2.1002    3.7950 O.3       1 <0>        -0.8893
     17 H1         -0.8984    1.9597    0.0252 H         1 <0>         0.2095
     18 H2          1.5887    2.7994    0.0016 H         1 <0>         0.2166
     19 H3          1.5585   -1.4495   -0.0206 H         1 <0>         0.2384
     20 H4          3.8668   -0.2536   -0.5501 H         1 <0>         0.1166
     21 H5          3.8911    1.5261   -0.5408 H         1 <0>         0.1390
     22 H6          3.8286   -1.3728    1.6708 H         1 <0>         0.3535
     23 H7          3.7464    2.8663    4.3198 H         1 <0>         0.4102
     24 H8         -0.7811   -0.5763    0.0069 H         1 <0>         0.4478
     25 H9          7.3807    0.4311    2.9648 H         1 <0>         0.4117
@<TRIPOS>BOND
     1    1    5 1
     2    1    2 2
     3    1   17 1
     4    2    3 1
     5    2   18 1
     6    3    4 1
     7    3    6 1
     8    4    5 2
     9    4   19 1
    10    5   24 1
    11    6    7 1
    12    6   20 1
    13    6   21 1
    14    7    8 1
    15    7    9 1
    16    7   13 1
    17    8   22 1
    18    9   10 2
    19    9   11 1
    20    9   12 1
    21   11   25 1
    22   13   14 2
    23   13   15 1
    24   13   16 1
    25   16   23 1
@<TRIPOS>MOLECULE
CHEMBL924__2
   23    23     0     0     0
SMALL
USER_CHARGES

@<TRIPOS>ATOM
      1 C1         -0.0161    1.3371    0.0094 C.2       1 <0>        -0.1021
      2 C2          1.2587    1.7711   -0.0004 C.2       1 <0>         0.0893
      3 N1          2.0558    0.6583   -0.0140 N.pl3     1 <0>        -0.4281
      4 C3          1.2397   -0.4176   -0.0120 C.2       1 <0>         0.1395
      5 N2          0.0021   -0.0041    0.0020 N.2       1 <0>        -0.5154
      6 C4          3.5206    0.6384   -0.0281 C.3       1 <0>         0.1107
      7 C5          4.0443    0.6237    1.4094 C.3       1 <0>        -1.0308
      8 O1          3.5585   -0.5400    2.0814 O.3       1 <0>        -0.4874
      9 P1          3.4652    2.1157    2.2823 P.3       1 <0>         2.1990
     10 O2          3.9977    3.3916    1.5455 O.2       1 <0>        -1.1715
     11 O3          1.8988    2.1370    2.2974 O.3       1 <0>        -1.1492
     12 O4          4.0015    2.1007    3.7543 O.3       1 <0>        -1.1559
     13 P2          5.8670    0.5990    1.3918 P.3       1 <0>         2.2619
     14 O5          6.3958    0.5842    2.8434 O.2       1 <0>        -1.0796
     15 O6          6.3578   -0.6655    0.6520 O.3       1 <0>        -1.1282
     16 O7          6.4143    1.9101    0.6346 O.3       1 <0>        -0.8780
     17 H1         -0.8984    1.9597    0.0252 H         1 <0>         0.1439
     18 H2          1.5887    2.7994    0.0016 H         1 <0>         0.1608
     19 H3          1.5585   -1.4495   -0.0206 H         1 <0>         0.1717
     20 H4          3.8668   -0.2536   -0.5501 H         1 <0>         0.0632
     21 H5          3.8911    1.5261   -0.5408 H         1 <0>         0.0840
     22 H6          3.8286   -1.3728    1.6708 H         1 <0>         0.3142
     23 H7          7.3787    1.9634    0.5875 H         1 <0>         0.3879
@<TRIPOS>BOND
     1    1    5 1
     2    1    2 2
     3    1   17 1
     4    2    3 1
     5    2   18 1
     6    3    4 1
     7    3    6 1
     8    4    5 2
     9    4   19 1
    10    6    7 1
    11    6   20 1
    12    6   21 1
    13    7    8 1
    14    7    9 1
    15    7   13 1
    16    8   22 1
    17    9   10 2
    18    9   11 1
    19    9   12 1
    20   13   14 2
    21   13   15 1
    22   13   16 1
    23   16   23 1
@<TRIPOS>MOLECULE
CHEMBL924__3
   24    24     0     0     0
SMALL
USER_CHARGES

@<TRIPOS>ATOM
      1 C1         -0.0161    1.3371    0.0094 C.2       1 <0>        -0.0449
      2 C2          1.2587    1.7711   -0.0004 C.2       1 <0>        -0.0649
      3 N1          2.0558    0.6583   -0.0140 N.pl3     1 <0>        -0.4456
      4 C3          1.2397   -0.4176   -0.0120 C.2       1 <0>         0.2677
      5 N2          0.0021   -0.0041    0.0020 N.2       1 <0>        -0.5163
      6 C4          3.5206    0.6384   -0.0281 C.3       1 <0>         0.1133
      7 C5          4.0443    0.6237    1.4094 C.3       1 <0>        -1.0453
      8 O1          3.5904    1.7933    2.0937 O.3       1 <0>        -0.4956
      9 P1          3.4246   -0.8609    2.2667 P.3       1 <0>         2.2601
     10 O2          3.9534   -0.8758    3.7183 O.2       1 <0>        -1.0821
     11 O3          1.8798   -0.8399    2.2816 O.3       1 <0>        -1.0694
     12 O4          3.9360   -2.1786    1.4958 O.3       1 <0>        -0.8876
     13 P2          5.8670    0.5990    1.3918 P.3       1 <0>         2.2464
     14 O5          6.3578   -0.6655    0.6520 O.2       1 <0>        -1.0825
     15 O6          6.3922    1.8572    0.6652 O.3       1 <0>        -1.1015
     16 O7          6.4181    0.5835    2.9045 O.3       1 <0>        -0.8724
     17 H1         -0.8984    1.9597    0.0252 H         1 <0>         0.1505
     18 H2          1.5887    2.7994    0.0016 H         1 <0>         0.1495
     19 H3          1.5585   -1.4495   -0.0206 H         1 <0>         0.1861
     20 H4          3.8668   -0.2536   -0.5501 H         1 <0>         0.0992
     21 H5          3.8911    1.5261   -0.5408 H         1 <0>         0.0864
     22 H6          3.8831    2.6226    1.6918 H         1 <0>         0.3450
     23 H7          3.6432   -3.0079    1.8977 H         1 <0>         0.4046
     24 H8          7.3827    0.5700    2.9716 H         1 <0>         0.3994
@<TRIPOS>BOND
     1    1    5 1
     2    1    2 2
     3    1   17 1
     4    2    3 1
     5    2   18 1
     6    3    4 1
     7    3    6 1
     8    4    5 2
     9    4   19 1
    10    6    7 1
    11    6   20 1
    12    6   21 1
    13    7    8 1
    14    7    9 1
    15    7   13 1
    16    8   22 1
    17    9   10 2
    18    9   11 1
    19    9   12 1
    20   12   23 1
    21   13   14 2
    22   13   15 1
    23   13   16 1
    24   16   24 1
@<TRIPOS>MOLECULE
CHEMBL55264
   31    30     0     0     0
SMALL
USER_CHARGES

@<TRIPOS>ATOM
      1 C1         -0.0187    1.5258    0.0104 C.3       1 <0>        -0.1470
      2 C2          0.0021   -0.0041    0.0020 C.3       1 <0>        -0.1235
      3 C3          0.7182   -0.4975   -1.2568 C.3       1 <0>        -0.1168
      4 C4          0.7390   -2.0273   -1.2652 C.3       1 <0>        -0.1138
      5 C5          1.4551   -2.5207   -2.5240 C.3       1 <0>        -0.1391
      6 C6          1.4758   -4.0506   -2.5324 C.3       1 <0>        -0.0835
      7 C7          2.1920   -4.5440   -3.7912 C.3       1 <0>        -1.0337
      8 O1          1.5008   -4.0706   -4.9489 O.3       1 <0>        -0.5178
      9 P1          3.9023   -3.9130   -3.8042 P.3       1 <0>         2.2257
     10 O2          3.8817   -2.3511   -3.9243 O.2       1 <0>        -1.1793
     11 O3          4.6210   -4.3251   -2.4745 O.3       1 <0>        -1.1657
     12 O4          4.6738   -4.5206   -5.0248 O.3       1 <0>        -1.1783
     13 P2          2.2167   -6.3668   -3.8012 P.3       1 <0>         2.2727
     14 O5          2.9640   -6.8786   -2.5496 O.2       1 <0>        -1.0980
     15 O6          0.7673   -6.9016   -3.7903 O.3       1 <0>        -1.1371
     16 O7          2.9703   -6.8860   -5.1259 O.3       1 <0>        -0.8692
     17 H1          1.0039    1.9031    0.0027 H         1 <0>         0.0535
     18 H2         -0.5459    1.8868   -0.8726 H         1 <0>         0.0486
     19 H3         -0.5289    1.8773    0.9072 H         1 <0>         0.0414
     20 H4          0.5293   -0.3651    0.8851 H         1 <0>         0.0581
     21 H5         -1.0205   -0.3814    0.0098 H         1 <0>         0.0520
     22 H6          0.1910   -0.1364   -2.1398 H         1 <0>         0.0527
     23 H7          1.7408   -0.1202   -1.2645 H         1 <0>         0.0669
     24 H8          1.2661   -2.3884   -0.3821 H         1 <0>         0.0530
     25 H9         -0.2836   -2.4046   -1.2575 H         1 <0>         0.0366
     26 H10         0.9279   -2.1597   -3.4071 H         1 <0>         0.0406
     27 H11         2.4777   -2.1435   -2.5317 H         1 <0>         0.1238
     28 H12         2.0030   -4.4117   -1.6494 H         1 <0>         0.0664
     29 H13         0.4533   -4.4279   -2.5247 H         1 <0>         0.0210
     30 H14         0.5826   -4.3681   -5.0079 H         1 <0>         0.3106
     31 H15         3.0209   -7.8490   -5.1977 H         1 <0>         0.3792
@<TRIPOS>BOND
     1    1    2 1
     2    1   17 1
     3    1   18 1
     4    1   19 1
     5    2    3 1
     6    2   20 1
     7    2   21 1
     8    3    4 1
     9    3   22 1
    10    3   23 1
    11    4    5 1
    12    4   24 1
    13    4   25 1
    14    5    6 1
    15    5   26 1
    16    5   27 1
    17    6    7 1
    18    6   28 1
    19    6   29 1
    20    7    8 1
    21    7    9 1
    22    7   13 1
    23    8   30 1
    24    9   10 2
    25    9   11 1
    26    9   12 1
    27   13   14 2
    28   13   15 1
    29   13   16 1
    30   16   31 1
@<TRIPOS>MOLECULE
CHEMBL55264__1
   32    31     0     0     0
SMALL
USER_CHARGES

@<TRIPOS>ATOM
      1 C1         -0.0187    1.5258    0.0104 C.3       1 <0>        -0.1493
      2 C2          0.0021   -0.0041    0.0020 C.3       1 <0>        -0.1246
      3 C3          0.7182   -0.4975   -1.2568 C.3       1 <0>        -0.1173
      4 C4          0.7390   -2.0273   -1.2652 C.3       1 <0>        -0.1157
      5 C5          1.4551   -2.5207   -2.5240 C.3       1 <0>        -0.1505
      6 C6          1.4758   -4.0506   -2.5324 C.3       1 <0>        -0.1026
      7 C7          2.1920   -4.5440   -3.7912 C.3       1 <0>        -1.0366
      8 O1          1.5008   -4.0706   -4.9489 O.3       1 <0>        -0.5074
      9 P1          3.9023   -3.9130   -3.8042 P.3       1 <0>         2.2851
     10 O2          4.6254   -4.4113   -5.0753 O.2       1 <0>        -1.0919
     11 O3          3.8813   -2.3682   -3.7957 O.3       1 <0>        -1.0931
     12 O4          4.6809   -4.4463   -2.4998 O.3       1 <0>        -0.8855
     13 P2          2.2167   -6.3668   -3.8012 P.3       1 <0>         2.2448
     14 O5          2.9640   -6.8786   -2.5496 O.2       1 <0>        -1.0884
     15 O6          0.7673   -6.9016   -3.7903 O.3       1 <0>        -1.1076
     16 O7          2.9703   -6.8860   -5.1259 O.3       1 <0>        -0.8743
     17 H1          1.0039    1.9031    0.0027 H         1 <0>         0.0535
     18 H2         -0.5459    1.8868   -0.8726 H         1 <0>         0.0506
     19 H3         -0.5289    1.8773    0.9072 H         1 <0>         0.0456
     20 H4          0.5293   -0.3651    0.8851 H         1 <0>         0.0582
     21 H5         -1.0205   -0.3814    0.0098 H         1 <0>         0.0550
     22 H6          0.1910   -0.1364   -2.1398 H         1 <0>         0.0565
     23 H7          1.7408   -0.1202   -1.2645 H         1 <0>         0.0657
     24 H8          1.2661   -2.3884   -0.3821 H         1 <0>         0.0535
     25 H9         -0.2836   -2.4046   -1.2575 H         1 <0>         0.0450
     26 H10         0.9279   -2.1597   -3.4071 H         1 <0>         0.0538
     27 H11         2.4777   -2.1435   -2.5317 H         1 <0>         0.1213
     28 H12         2.0030   -4.4117   -1.6494 H         1 <0>         0.0659
     29 H13         0.4533   -4.4279   -2.5247 H         1 <0>         0.0497
     30 H14         0.5826   -4.3681   -5.0079 H         1 <0>         0.3440
     31 H15         5.5991   -4.1488   -2.4409 H         1 <0>         0.4004
     32 H16         3.0209   -7.8490   -5.1977 H         1 <0>         0.3959
@<TRIPOS>BOND
     1    1    2 1
     2    1   17 1
     3    1   18 1
     4    1   19 1
     5    2    3 1
     6    2   20 1
     7    2   21 1
     8    3    4 1
     9    3   22 1
    10    3   23 1
    11    4    5 1
    12    4   24 1
    13    4   25 1
    14    5    6 1
    15    5   26 1
    16    5   27 1
    17    6    7 1
    18    6   28 1
    19    6   29 1
    20    7    8 1
    21    7    9 1
    22    7   13 1
    23    8   30 1
    24    9   10 2
    25    9   11 1
    26    9   12 1
    27   12   31 1
    28   13   14 2
    29   13   15 1
    30   13   16 1
    31   16   32 1
@<TRIPOS>MOLECULE
CHEMBL299988
   28    27     0     0     0
SMALL
USER_CHARGES

@<TRIPOS>ATOM
      1 C1         -0.0187    1.5258    0.0104 C.3       1 <0>        -0.1436
      2 C2          0.0021   -0.0041    0.0020 C.3       1 <0>        -0.1231
      3 C3         -1.4333   -0.5336    0.0129 C.3       1 <0>        -0.1138
      4 C4         -1.4126   -2.0635    0.0045 C.3       1 <0>        -0.1398
      5 C5         -2.8479   -2.5931    0.0153 C.3       1 <0>        -0.0835
      6 C6         -2.8272   -4.1229    0.0069 C.3       1 <0>        -1.0338
      7 O1         -2.1583   -4.5837   -1.1688 O.3       1 <0>        -0.5178
      8 P1         -1.9455   -4.7268    1.4838 P.3       1 <0>         2.2252
      9 O2         -0.4424   -4.2915    1.4090 O.2       1 <0>        -1.1792
     10 O3         -2.6021   -4.1180    2.7694 O.3       1 <0>        -1.1655
     11 O4         -2.0342   -6.2899    1.5423 O.3       1 <0>        -1.1782
     12 P2         -4.5375   -4.7539    0.0199 P.3       1 <0>         2.2729
     13 O5         -5.2606   -4.2557    1.2910 O.2       1 <0>        -1.0981
     14 O6         -5.2847   -4.2421   -1.2318 O.3       1 <0>        -1.1372
     15 O7         -4.5156   -6.3637    0.0110 O.3       1 <0>        -0.8691
     16 H1          1.0039    1.9031    0.0027 H         1 <0>         0.0405
     17 H2         -0.5459    1.8868   -0.8726 H         1 <0>         0.0435
     18 H3         -0.5289    1.8773    0.9072 H         1 <0>         0.0497
     19 H4          0.5123   -0.3556   -0.8948 H         1 <0>         0.0524
     20 H5          0.5293   -0.3651    0.8851 H         1 <0>         0.0668
     21 H6         -1.9435   -0.1821    0.9097 H         1 <0>         0.0531
     22 H7         -1.9605   -0.1726   -0.8702 H         1 <0>         0.0366
     23 H8         -0.9024   -2.4150   -0.8923 H         1 <0>         0.0407
     24 H9         -0.8854   -2.4246    0.8875 H         1 <0>         0.1239
     25 H10        -3.3581   -2.2415    0.9121 H         1 <0>         0.0665
     26 H11        -3.3751   -2.2320   -0.8677 H         1 <0>         0.0211
     27 H12        -2.5736   -4.2995   -1.9945 H         1 <0>         0.3106
     28 H13        -5.3936   -6.7690    0.0172 H         1 <0>         0.3792
@<TRIPOS>BOND
     1    1    2 1
     2    1   16 1
     3    1   17 1
     4    1   18 1
     5    2    3 1
     6    2   19 1
     7    2   20 1
     8    3    4 1
     9    3   21 1
    10    3   22 1
    11    4    5 1
    12    4   23 1
    13    4   24 1
    14    5    6 1
    15    5   25 1
    16    5   26 1
    17    6    7 1
    18    6    8 1
    19    6   12 1
    20    7   27 1
    21    8    9 2
    22    8   10 1
    23    8   11 1
    24   12   13 2
    25   12   14 1
    26   12   15 1
    27   15   28 1
@<TRIPOS>MOLECULE
CHEMBL299988__1
   29    28     0     0     0
SMALL
USER_CHARGES

@<TRIPOS>ATOM
      1 C1         -0.0187    1.5258    0.0104 C.3       1 <0>        -0.1473
      2 C2          0.0021   -0.0041    0.0020 C.3       1 <0>        -0.1231
      3 C3          0.7182   -0.4975   -1.2568 C.3       1 <0>        -0.1157
      4 C4          0.7390   -2.0273   -1.2652 C.3       1 <0>        -0.1511
      5 C5          1.4551   -2.5207   -2.5240 C.3       1 <0>        -0.1027
      6 C6          1.4758   -4.0506   -2.5324 C.3       1 <0>        -1.0367
      7 O1          2.1670   -4.5240   -1.3747 O.3       1 <0>        -0.5074
      8 P1         -0.2344   -4.6816   -2.5195 P.3       1 <0>         2.2850
      9 O2         -0.2135   -6.2264   -2.5280 O.2       1 <0>        -1.0917
     10 O3         -0.9576   -4.1833   -1.2483 O.3       1 <0>        -1.0932
     11 O4         -1.0131   -4.1482   -3.8238 O.3       1 <0>        -0.8854
     12 P2          2.3291   -4.6385   -4.0323 P.3       1 <0>         2.2449
     13 O5          1.5819   -4.1267   -5.2840 O.2       1 <0>        -1.0884
     14 O6          3.7786   -4.1037   -4.0433 O.3       1 <0>        -1.1077
     15 O7          2.3510   -6.2483   -4.0411 O.3       1 <0>        -0.8742
     16 H1          1.0039    1.9031    0.0027 H         1 <0>         0.0471
     17 H2         -0.5459    1.8868   -0.8726 H         1 <0>         0.0503
     18 H3         -0.5289    1.8773    0.9072 H         1 <0>         0.0456
     19 H4          0.5293   -0.3651    0.8851 H         1 <0>         0.0562
     20 H5         -1.0205   -0.3814    0.0098 H         1 <0>         0.0655
     21 H6          0.1910   -0.1364   -2.1398 H         1 <0>         0.0536
     22 H7          1.7408   -0.1202   -1.2645 H         1 <0>         0.0450
     23 H8          1.2661   -2.3884   -0.3821 H         1 <0>         0.0539
     24 H9         -0.2836   -2.4046   -1.2575 H         1 <0>         0.1214
     25 H10         0.9279   -2.1597   -3.4071 H         1 <0>         0.0660
     26 H11         2.4777   -2.1435   -2.5317 H         1 <0>         0.0497
     27 H12         3.0852   -4.2265   -1.3158 H         1 <0>         0.3441
     28 H13        -1.9313   -4.4457   -3.8828 H         1 <0>         0.4005
     29 H14         2.7906   -6.6315   -4.8125 H         1 <0>         0.3960
@<TRIPOS>BOND
     1    1    2 1
     2    1   16 1
     3    1   17 1
     4    1   18 1
     5    2    3 1
     6    2   19 1
     7    2   20 1
     8    3    4 1
     9    3   21 1
    10    3   22 1
    11    4    5 1
    12    4   23 1
    13    4   24 1
    14    5    6 1
    15    5   25 1
    16    5   26 1
    17    6    7 1
    18    6    8 1
    19    6   12 1
    20    7   27 1
    21    8    9 2
    22    8   10 1
    23    8   11 1
    24   11   28 1
    25   12   13 2
    26   12   14 1
    27   12   15 1
    28   15   29 1
@<TRIPOS>MOLECULE
CHEMBL299717
   24    23     0     0     0
SMALL
USER_CHARGES

@<TRIPOS>ATOM
      1 C1          0.4008    1.4618    0.2806 C.3       1 <0>        -0.1438
      2 C2          0.3150   -0.0633    0.1937 C.3       1 <0>        -0.1470
      3 C3          0.8056   -0.5243   -1.1802 C.3       1 <0>        -0.0338
      4 N1          0.7232   -1.9886   -1.2637 N.4       1 <0>        -0.4308
      5 C4          1.3180   -2.4412   -2.5283 C.3       1 <0>        -1.1468
      6 P1          0.3107   -1.8395   -3.9234 P.3       1 <0>         2.1288
      7 O1         -1.1800   -2.2753   -3.7174 O.2       1 <0>        -1.1215
      8 O2          0.3931   -0.2765   -3.9912 O.3       1 <0>        -1.1453
      9 O3          0.8531   -2.4495   -5.2606 O.3       1 <0>        -1.1259
     10 P2          1.3699   -4.2633   -2.5575 P.3       1 <0>         2.2712
     11 O4          2.2237   -4.7732   -1.3752 O.2       1 <0>        -1.1109
     12 O5         -0.0655   -4.8214   -2.4347 O.3       1 <0>        -1.0699
     13 O6          2.0218   -4.7594   -3.9435 O.3       1 <0>        -0.8694
     14 H1          1.4350    1.7761    0.1398 H         1 <0>         0.0570
     15 H2         -0.2227    1.9056   -0.4955 H         1 <0>         0.0704
     16 H3          0.0513    1.7902    1.2594 H         1 <0>         0.0597
     17 H4          0.9385   -0.5071    0.9699 H         1 <0>         0.0675
     18 H5         -0.7192   -0.3776    0.3345 H         1 <0>         0.0812
     19 H6          0.1821   -0.0805   -1.9564 H         1 <0>         0.1718
     20 H7          1.8397   -0.2099   -1.3210 H         1 <0>         0.1026
     21 H8          1.2251   -2.3983   -0.4902 H         1 <0>         0.3883
     22 H9          2.3307   -2.0475   -2.6149 H         1 <0>         0.1187
     23 H10         2.0813   -5.7208   -4.0283 H         1 <0>         0.4011
     24 H11        -0.2440   -2.2737   -1.2258 H         1 <0>         0.4268
@<TRIPOS>BOND
     1    1    2 1
     2    1   14 1
     3    1   15 1
     4    1   16 1
     5    2    3 1
     6    2   17 1
     7    2   18 1
     8    3    4 1
     9    3   19 1
    10    3   20 1
    11    4    5 1
    12    4   21 1
    13    4   24 1
    14    5    6 1
    15    5   10 1
    16    5   22 1
    17    6    7 2
    18    6    8 1
    19    6    9 1
    20   10   11 2
    21   10   12 1
    22   10   13 1
    23   13   23 1
@<TRIPOS>MOLECULE
CHEMBL299717__1
   23    22     0     0     0
SMALL
USER_CHARGES

@<TRIPOS>ATOM
      1 C1         -0.8798    0.9418   -0.1606 C.3       1 <0>        -0.1402
      2 C2         -0.5219   -0.5441   -0.0898 C.3       1 <0>        -0.1478
      3 C3          0.3166   -0.8076    1.1626 C.3       1 <0>        -0.0370
      4 N1          0.6602   -2.2342    1.2306 N.4       1 <0>        -0.4300
      5 C4          1.5737   -2.4646    2.3577 C.3       1 <0>        -1.1309
      6 P1          0.7020   -2.1334    3.9241 P.3       1 <0>         2.1823
      7 O1          0.3548   -0.6084    4.0162 O.2       1 <0>        -1.1790
      8 O2         -0.6194   -2.9737    3.9742 O.3       1 <0>        -1.1502
      9 O3          1.6212   -2.5334    5.1280 O.3       1 <0>        -1.1352
     10 P2          2.1436   -4.1961    2.3338 P.3       1 <0>         2.1765
     11 O4          0.9098   -5.1537    2.4574 O.2       1 <0>        -1.1474
     12 O5          2.8928   -4.4808    0.9877 O.3       1 <0>        -1.1907
     13 O6          3.1179   -4.4419    3.5358 O.3       1 <0>        -1.1356
     14 H1          0.0343    1.5340   -0.2042 H         1 <0>         0.0545
     15 H2         -1.4771    1.1295   -1.0528 H         1 <0>         0.0532
     16 H3         -1.4514    1.2204    0.7246 H         1 <0>         0.0680
     17 H4         -1.4360   -1.1363   -0.0462 H         1 <0>         0.0772
     18 H5          0.0497   -0.8228   -0.9750 H         1 <0>         0.0636
     19 H6          1.2306   -0.2154    1.1191 H         1 <0>         0.0942
     20 H7         -0.2551   -0.5289    2.0478 H         1 <0>         0.1657
     21 H8         -0.1803   -2.7767    1.3626 H         1 <0>         0.4193
     22 H9          2.4321   -1.7984    2.2717 H         1 <0>         0.0909
     23 H10         1.1092   -2.5134    0.3712 H         1 <0>         0.3788
@<TRIPOS>BOND
     1    1    2 1
     2    1   14 1
     3    1   15 1
     4    1   16 1
     5    2    3 1
     6    2   17 1
     7    2   18 1
     8    3    4 1
     9    3   19 1
    10    3   20 1
    11    4    5 1
    12    4   21 1
    13    4   23 1
    14    5    6 1
    15    5   10 1
    16    5   22 1
    17    6    7 2
    18    6    8 1
    19    6    9 1
    20   10   11 2
    21   10   12 1
    22   10   13 1
@<TRIPOS>MOLECULE
CHEMBL301065
   23    23     0     0     0
SMALL
USER_CHARGES

@<TRIPOS>ATOM
      1 C1         -0.0167    1.3781    0.0096 C.ar      1 <0>        -0.1435
      2 C2          1.1828    2.0713    0.0019 C.ar      1 <0>        -0.2083
      3 C3          2.3687    1.3411   -0.0134 C.ar      1 <0>         0.1950
      4 C4          2.3055   -0.0468   -0.0202 C.ar      1 <0>         0.1036
      5 N1          1.1424   -0.6665   -0.0124 N.ar      1 <0>        -0.4608
      6 C5          0.0021   -0.0041    0.0020 C.ar      1 <0>        -0.0304
      7 N2          3.6035    1.9946   -0.0221 N.pl3     1 <0>        -0.6388
      8 C6          4.8442    1.2158   -0.0381 C.3       1 <0>        -1.0430
      9 P1          5.1386    0.5077    1.6157 P.3       1 <0>         2.1848
     10 O1          5.2617    1.6646    2.6649 O.2       1 <0>        -1.1530
     11 O2          3.9416   -0.4251    2.0050 O.3       1 <0>        -1.1666
     12 O3          6.4655   -0.3251    1.5986 O.3       1 <0>        -1.1728
     13 P2          6.2371    2.3012   -0.4911 P.3       1 <0>         2.2861
     14 O4          5.9876    2.9014   -1.8927 O.2       1 <0>        -1.1324
     15 O5          6.3585    3.4422    0.5435 O.3       1 <0>        -1.0895
     16 O6          7.6007    1.4454   -0.5087 O.3       1 <0>        -0.8776
     17 H1         -0.9556    1.9115    0.0259 H         1 <0>         0.1058
     18 H2          1.1979    3.1511    0.0072 H         1 <0>         0.1127
     19 H3          3.2185   -0.6235   -0.0324 H         1 <0>         0.1624
     20 H4         -0.9302   -0.5492    0.0084 H         1 <0>         0.1239
     21 H5          3.6393    2.9639   -0.0176 H         1 <0>         0.3931
     22 H6          4.7586    0.4109   -0.7681 H         1 <0>         0.0613
     23 H7          8.3852    1.9602   -0.7424 H         1 <0>         0.3878
@<TRIPOS>BOND
     1    1    6 ar
     2    1    2 ar
     3    1   17 1
     4    2    3 ar
     5    2   18 1
     6    3    4 ar
     7    3    7 1
     8    4    5 ar
     9    4   19 1
    10    5    6 ar
    11    6   20 1
    12    7    8 1
    13    7   21 1
    14    8    9 1
    15    8   13 1
    16    8   22 1
    17    9   10 2
    18    9   11 1
    19    9   12 1
    20   13   14 2
    21   13   15 1
    22   13   16 1
    23   16   23 1
@<TRIPOS>MOLECULE
CHEMBL301065__1
   24    24     0     0     0
SMALL
USER_CHARGES

@<TRIPOS>ATOM
      1 C1         -0.0167    1.3781    0.0096 C.ar      1 <0>        -0.1411
      2 C2          1.1828    2.0713    0.0019 C.ar      1 <0>        -0.1821
      3 C3          2.3687    1.3411   -0.0134 C.ar      1 <0>         0.1761
      4 C4          2.3055   -0.0468   -0.0202 C.ar      1 <0>         0.0911
      5 N1          1.1424   -0.6665   -0.0124 N.ar      1 <0>        -0.4531
      6 C5          0.0021   -0.0041    0.0020 C.ar      1 <0>         0.0002
      7 N2          3.6035    1.9946   -0.0221 N.pl3     1 <0>        -0.6711
      8 C6          4.8442    1.2158   -0.0381 C.3       1 <0>        -1.0399
      9 P1          5.1062    0.5244   -1.7044 P.3       1 <0>         2.2468
     10 O1          6.4148   -0.2969   -1.7213 O.2       1 <0>        -1.0894
     11 O2          3.9184   -0.3917   -2.0745 O.3       1 <0>        -1.0883
     12 O3          5.2118    1.7242   -2.7728 O.3       1 <0>        -0.8775
     13 P2          6.2458    2.2967    0.3985 P.3       1 <0>         2.2581
     14 O4          6.3471    3.4481   -0.6267 O.2       1 <0>        -1.0828
     15 O5          6.0237    2.8827    1.8107 O.3       1 <0>        -1.1031
     16 O6          7.6093    1.4409    0.3809 O.3       1 <0>        -0.8801
     17 H1         -0.9556    1.9115    0.0259 H         1 <0>         0.1176
     18 H2          1.1979    3.1511    0.0072 H         1 <0>         0.1210
     19 H3          3.2185   -0.6235   -0.0324 H         1 <0>         0.1598
     20 H4         -0.9302   -0.5492    0.0084 H         1 <0>         0.1358
     21 H5          3.6393    2.9639   -0.0176 H         1 <0>         0.4006
     22 H6          4.7728    0.4035    0.6852 H         1 <0>         0.1008
     23 H7          5.3518    1.4292   -3.6830 H         1 <0>         0.3981
     24 H8          8.3983    1.9534    0.6045 H         1 <0>         0.4027
@<TRIPOS>BOND
     1    1    6 ar
     2    1    2 ar
     3    1   17 1
     4    2    3 ar
     5    2   18 1
     6    3    4 ar
     7    3    7 1
     8    4    5 ar
     9    4   19 1
    10    5    6 ar
    11    6   20 1
    12    7    8 1
    13    7   21 1
    14    8    9 1
    15    8   13 1
    16    8   22 1
    17    9   10 2
    18    9   11 1
    19    9   12 1
    20   12   23 1
    21   13   14 2
    22   13   15 1
    23   13   16 1
    24   16   24 1
@<TRIPOS>MOLECULE
CHEMBL55959
   27    27     0     0     0
SMALL
USER_CHARGES

@<TRIPOS>ATOM
      1 C1         -0.0184    1.5028    0.0103 C.3       1 <0>        -0.1147
      2 C2          0.0021   -0.0041    0.0020 C.ar      1 <0>         0.1138
      3 C3          0.0055   -0.6789   -1.2025 C.ar      1 <0>        -0.1815
      4 C4          0.0244   -2.0671   -1.2042 C.ar      1 <0>        -0.0358
      5 C5          0.0391   -2.7287    0.0107 C.ar      1 <0>        -0.0959
      6 C6          0.0346   -1.9849    1.1860 C.ar      1 <0>         0.4314
      7 N1          0.0219   -0.6613    1.1459 N.ar      1 <0>        -0.5254
      8 N2          0.0488   -2.6368    2.4137 N.pl3     1 <0>        -0.5657
      9 C7          0.0685   -4.1007    2.4656 C.3       1 <0>        -1.0395
     10 P1          1.7348   -4.7017    2.0351 P.3       1 <0>         2.1434
     11 O1          2.1043   -4.2254    0.5890 O.2       1 <0>        -1.1461
     12 O2          2.7764   -4.1290    3.0556 O.3       1 <0>        -1.1274
     13 O3          1.7559   -6.2672    2.0905 O.3       1 <0>        -1.1408
     14 P2         -0.3614   -4.6549    4.1483 P.3       1 <0>         2.2773
     15 O4          0.6658   -4.0901    5.1547 O.2       1 <0>        -1.0747
     16 O5         -1.7736   -4.1456    4.5132 O.3       1 <0>        -1.1178
     17 O6         -0.3398   -6.2638    4.2053 O.3       1 <0>        -0.8755
     18 H1          1.0042    1.8801    0.0026 H         1 <0>         0.0918
     19 H2         -0.5455    1.8639   -0.8728 H         1 <0>         0.0948
     20 H3         -0.5286    1.8543    0.9071 H         1 <0>         0.0767
     21 H4         -0.0067   -0.1323   -2.1339 H         1 <0>         0.1529
     22 H5          0.0271   -2.6181   -2.1331 H         1 <0>         0.1518
     23 H6          0.0536   -3.8080    0.0460 H         1 <0>         0.1806
     24 H7          0.0458   -2.1223    3.2361 H         1 <0>         0.4123
     25 H8         -0.6562   -4.4992    1.7556 H         1 <0>         0.0916
     26 H9         -0.5597   -6.6296    5.0730 H         1 <0>         0.3986
     27 H10         0.0233   -0.1628    1.9780 H         1 <0>         0.4237
@<TRIPOS>BOND
     1    1    2 1
     2    1   18 1
     3    1   19 1
     4    1   20 1
     5    2    7 ar
     6    2    3 ar
     7    3    4 ar
     8    3   21 1
     9    4    5 ar
    10    4   22 1
    11    5    6 ar
    12    5   23 1
    13    6    7 ar
    14    6    8 1
    15    7   27 1
    16    8    9 1
    17    8   24 1
    18    9   10 1
    19    9   14 1
    20    9   25 1
    21   10   11 2
    22   10   12 1
    23   10   13 1
    24   14   15 2
    25   14   16 1
    26   14   17 1
    27   17   26 1
@<TRIPOS>MOLECULE
CHEMBL55959__1
   26    26     0     0     0
SMALL
USER_CHARGES

@<TRIPOS>ATOM
      1 C1         -0.0184    1.5028    0.0103 C.3       1 <0>        -0.0820
      2 C2          0.0021   -0.0041    0.0020 C.ar      1 <0>         0.1350
      3 C3          0.0055   -0.6789   -1.2025 C.ar      1 <0>        -0.2786
      4 C4          0.0244   -2.0671   -1.2042 C.ar      1 <0>        -0.0640
      5 C5          0.0391   -2.7287    0.0107 C.ar      1 <0>        -0.1544
      6 C6          0.0346   -1.9849    1.1860 C.ar      1 <0>         0.4170
      7 N1          0.0219   -0.6613    1.1459 N.ar      1 <0>        -0.5710
      8 N2          0.0488   -2.6368    2.4137 N.pl3     1 <0>        -0.6230
      9 C7          0.0685   -4.1007    2.4656 C.3       1 <0>        -1.0350
     10 P1          1.7348   -4.7017    2.0351 P.3       1 <0>         2.1864
     11 O1          2.1043   -4.2254    0.5890 O.2       1 <0>        -1.1684
     12 O2          2.7764   -4.1290    3.0556 O.3       1 <0>        -1.1523
     13 O3          1.7559   -6.2672    2.0905 O.3       1 <0>        -1.1734
     14 P2         -0.3614   -4.6549    4.1483 P.3       1 <0>         2.2845
     15 O4          0.6658   -4.0901    5.1547 O.2       1 <0>        -1.0876
     16 O5         -1.7736   -4.1456    4.5132 O.3       1 <0>        -1.1308
     17 O6         -0.3398   -6.2638    4.2053 O.3       1 <0>        -0.8778
     18 H1          1.0042    1.8801    0.0026 H         1 <0>         0.0613
     19 H2         -0.5455    1.8639   -0.8728 H         1 <0>         0.0561
     20 H3         -0.5286    1.8543    0.9071 H         1 <0>         0.0618
     21 H4         -0.0067   -0.1323   -2.1339 H         1 <0>         0.1017
     22 H5          0.0271   -2.6181   -2.1331 H         1 <0>         0.1097
     23 H6          0.0536   -3.8080    0.0460 H         1 <0>         0.1401
     24 H7          0.0458   -2.1223    3.2361 H         1 <0>         0.3962
     25 H8         -0.6562   -4.4992    1.7556 H         1 <0>         0.0608
     26 H9         -0.5597   -6.6296    5.0730 H         1 <0>         0.3879
@<TRIPOS>BOND
     1    1    2 1
     2    1   18 1
     3    1   19 1
     4    1   20 1
     5    2    7 ar
     6    2    3 ar
     7    3    4 ar
     8    3   21 1
     9    4    5 ar
    10    4   22 1
    11    5    6 ar
    12    5   23 1
    13    6    7 ar
    14    6    8 1
    15    8    9 1
    16    8   24 1
    17    9   10 1
    18    9   14 1
    19    9   25 1
    20   10   11 2
    21   10   12 1
    22   10   13 1
    23   14   15 2
    24   14   16 1
    25   14   17 1
    26   17   26 1
@<TRIPOS>MOLECULE
CHEMBL55959__2
   28    28     0     0     0
SMALL
USER_CHARGES

@<TRIPOS>ATOM
      1 C1         -0.0184    1.5028    0.0103 C.3       1 <0>        -0.1246
      2 C2          0.0021   -0.0041    0.0020 C.ar      1 <0>         0.1384
      3 C3          0.0055   -0.6789   -1.2025 C.ar      1 <0>        -0.1773
      4 C4          0.0244   -2.0671   -1.2042 C.ar      1 <0>         0.0048
      5 C5          0.0391   -2.7287    0.0107 C.ar      1 <0>        -0.1274
      6 C6          0.0346   -1.9849    1.1860 C.ar      1 <0>         0.4382
      7 N1          0.0219   -0.6613    1.1459 N.ar      1 <0>        -0.5128
      8 N2          0.0488   -2.6368    2.4137 N.pl3     1 <0>        -0.6147
      9 C7          0.0685   -4.1007    2.4656 C.3       1 <0>        -1.0449
     10 P1          0.5282   -4.6431    4.1443 P.3       1 <0>         2.2457
     11 O1          1.9297   -4.0965    4.4964 O.2       1 <0>        -1.0886
     12 O2         -0.5044   -4.1056    5.1600 O.3       1 <0>        -1.0676
     13 O3          0.5498   -6.2520    4.2013 O.3       1 <0>        -0.8771
     14 P2         -1.5852   -4.7457    2.0501 P.3       1 <0>         2.2342
     15 O4         -1.9748   -4.2860    0.6275 O.2       1 <0>        -1.0801
     16 O5         -1.5644   -6.2896    2.1049 O.3       1 <0>        -1.0647
     17 O6         -2.6612   -4.1856    3.1087 O.3       1 <0>        -0.8780
     18 H1          1.0042    1.8801    0.0026 H         1 <0>         0.0983
     19 H2         -0.5455    1.8639   -0.8728 H         1 <0>         0.1051
     20 H3         -0.5286    1.8543    0.9071 H         1 <0>         0.0848
     21 H4         -0.0067   -0.1323   -2.1339 H         1 <0>         0.1656
     22 H5          0.0271   -2.6181   -2.1331 H         1 <0>         0.1637
     23 H6          0.0536   -3.8080    0.0460 H         1 <0>         0.1815
     24 H7          0.0458   -2.1223    3.2361 H         1 <0>         0.4188
     25 H8          0.7970   -4.4799    1.7490 H         1 <0>         0.1264
     26 H9          0.7871   -6.6117    5.0669 H         1 <0>         0.4124
     27 H10        -3.5653   -4.4890    2.9484 H         1 <0>         0.4094
     28 H11         0.0233   -0.1628    1.9780 H         1 <0>         0.4306
@<TRIPOS>BOND
     1    1    2 1
     2    1   18 1
     3    1   19 1
     4    1   20 1
     5    2    7 ar
     6    2    3 ar
     7    3    4 ar
     8    3   21 1
     9    4    5 ar
    10    4   22 1
    11    5    6 ar
    12    5   23 1
    13    6    7 ar
    14    6    8 1
    15    7   28 1
    16    8    9 1
    17    8   24 1
    18    9   10 1
    19    9   14 1
    20    9   25 1
    21   10   11 2
    22   10   12 1
    23   10   13 1
    24   13   26 1
    25   14   15 2
    26   14   16 1
    27   14   17 1
    28   17   27 1
@<TRIPOS>MOLECULE
CHEMBL340034
   24    24     0     0     0
SMALL
USER_CHARGES

@<TRIPOS>ATOM
      1 C1         -0.0165    1.3646    0.0095 C.2       1 <0>        -0.0426
      2 C2          1.2671    1.7717   -0.0005 C.2       1 <0>         0.1211
      3 N1          2.0482    0.6814   -0.0138 N.pl3     1 <0>        -0.3422
      4 C3          1.2973   -0.3859   -0.0124 C.cat     1 <0>         0.2479
      5 N2          0.0021   -0.0041    0.0020 N.pl3     1 <0>        -0.5202
      6 H1         -0.7708   -0.5902    0.0065 H         1 <0>         0.4406
      7 C4          3.5131    0.6877   -0.0282 C.3       1 <0>         0.0821
      8 C5          4.0373    0.6825    1.4092 C.3       1 <0>        -1.0252
      9 O1          3.5726   -0.4898    2.0814 O.3       1 <0>        -0.4898
     10 P1          3.4318    2.1639    2.2822 P.3       1 <0>         2.1782
     11 O2          3.9412    3.4491    1.5452 O.2       1 <0>        -1.1514
     12 O3          1.8652    2.1571    2.2976 O.3       1 <0>        -1.1436
     13 O4          3.9685    2.1585    3.7540 O.3       1 <0>        -1.1327
     14 P2          5.8602    0.6903    1.3913 P.3       1 <0>         2.2549
     15 O5          6.3895    0.6850    2.8428 O.2       1 <0>        -1.0642
     16 O6          6.3733   -0.5652    0.6514 O.3       1 <0>        -1.1155
     17 O7          6.3837    2.0111    0.6339 O.3       1 <0>        -0.8803
     18 H2         -0.8922    1.9965    0.0253 H         1 <0>         0.2038
     19 H3          1.6079    2.7966    0.0017 H         1 <0>         0.2093
     20 H4          1.6529   -1.4057   -0.0218 H         1 <0>         0.2322
     21 H5          3.8751   -0.1980   -0.5502 H         1 <0>         0.0961
     22 H6          3.8676    1.5819   -0.5410 H         1 <0>         0.1197
     23 H7          3.8574   -1.3176    1.6708 H         1 <0>         0.3240
     24 H8          7.3470    2.0815    0.5866 H         1 <0>         0.3976
@<TRIPOS>BOND
     1    1    5 1
     2    1    2 2
     3    1   18 1
     4    2    3 1
     5    2   19 1
     6    3    4 2
     7    3    7 1
     8    4    5 1
     9    4   20 1
    10    5    6 1
    11    7    8 1
    12    7   21 1
    13    7   22 1
    14    8    9 1
    15    8   10 1
    16    8   14 1
    17    9   23 1
    18   10   11 2
    19   10   12 1
    20   10   13 1
    21   14   15 2
    22   14   16 1
    23   14   17 1
    24   17   24 1
@<TRIPOS>MOLECULE
CHEMBL340034__1
   25    25     0     0     0
SMALL
USER_CHARGES

@<TRIPOS>ATOM
      1 C1         -0.0165    1.3646    0.0095 C.2       1 <0>        -0.0121
      2 C2          1.2671    1.7717   -0.0005 C.2       1 <0>         0.0959
      3 N1          2.0482    0.6814   -0.0138 N.pl3     1 <0>        -0.3556
      4 C3          1.2973   -0.3859   -0.0124 C.cat     1 <0>         0.2638
      5 N2          0.0021   -0.0041    0.0020 N.pl3     1 <0>        -0.5159
      6 H1         -0.7708   -0.5902    0.0065 H         1 <0>         0.4490
      7 C4          3.5131    0.6877   -0.0282 C.3       1 <0>         0.0871
      8 C5          4.0373    0.6825    1.4092 C.3       1 <0>        -1.0413
      9 O1          3.5726   -0.4898    2.0814 O.3       1 <0>        -0.4982
     10 P1          5.8602    0.6903    1.3913 P.3       1 <0>         2.2230
     11 O2          6.3895    0.6850    2.8428 O.2       1 <0>        -1.0565
     12 O3          6.3733   -0.5652    0.6514 O.3       1 <0>        -1.0845
     13 O4          6.3837    2.0111    0.6339 O.3       1 <0>        -0.8815
     14 P2          3.4318    2.1639    2.2822 P.3       1 <0>         2.2725
     15 O5          3.9342    3.4313    1.5554 O.2       1 <0>        -1.0761
     16 O6          1.8869    2.1572    2.2974 O.3       1 <0>        -1.0864
     17 O7          3.9833    2.1583    3.7948 O.3       1 <0>        -0.8743
     18 H2         -0.8922    1.9965    0.0253 H         1 <0>         0.2122
     19 H3          1.6079    2.7966    0.0017 H         1 <0>         0.2140
     20 H4          1.6529   -1.4057   -0.0218 H         1 <0>         0.2398
     21 H5          3.8751   -0.1980   -0.5502 H         1 <0>         0.1184
     22 H6          3.8676    1.5819   -0.5410 H         1 <0>         0.1321
     23 H7          3.8574   -1.3176    1.6708 H         1 <0>         0.3563
     24 H8          7.3470    2.0815    0.5866 H         1 <0>         0.4124
     25 H9          3.6999    2.9195    4.3196 H         1 <0>         0.4059
@<TRIPOS>BOND
     1    1    5 1
     2    1    2 2
     3    1   18 1
     4    2    3 1
     5    2   19 1
     6    3    4 2
     7    3    7 1
     8    4    5 1
     9    4   20 1
    10    5    6 1
    11    7    8 1
    12    7   21 1
    13    7   22 1
    14    8    9 1
    15    8   10 1
    16    8   14 1
    17    9   23 1
    18   10   11 2
    19   10   12 1
    20   10   13 1
    21   13   24 1
    22   14   15 2
    23   14   16 1
    24   14   17 1
    25   17   25 1
@<TRIPOS>MOLECULE
CHEMBL110971
   37    36     0     0     0
SMALL
USER_CHARGES

@<TRIPOS>ATOM
      1 C1         -0.0187    1.5258    0.0104 C.3       1 <0>        -0.1498
      2 C2          0.0021   -0.0041    0.0020 C.3       1 <0>        -0.1246
      3 C3          0.7182   -0.4975   -1.2568 C.3       1 <0>        -0.1209
      4 C4          0.7390   -2.0273   -1.2652 C.3       1 <0>        -0.1175
      5 C5          1.4551   -2.5207   -2.5240 C.3       1 <0>        -0.1161
      6 C6          1.4758   -4.0506   -2.5324 C.3       1 <0>        -0.1132
      7 C7          2.1920   -4.5440   -3.7912 C.3       1 <0>        -0.1388
      8 C8          2.2127   -6.0738   -3.7996 C.3       1 <0>        -0.0833
      9 C9          2.9289   -6.5673   -5.0584 C.3       1 <0>        -1.0341
     10 O1          2.2377   -6.0939   -6.2161 O.3       1 <0>        -0.5178
     11 P1          4.6391   -5.9363   -5.0714 P.3       1 <0>         2.2255
     12 O2          4.6186   -4.3743   -5.1915 O.2       1 <0>        -1.1791
     13 O3          5.3579   -6.3483   -3.7417 O.3       1 <0>        -1.1656
     14 O4          5.4107   -6.5438   -6.2920 O.3       1 <0>        -1.1784
     15 P2          2.9536   -8.3901   -5.0685 P.3       1 <0>         2.2727
     16 O5          3.7009   -8.9019   -3.8168 O.2       1 <0>        -1.0980
     17 O6          1.5041   -8.9248   -5.0575 O.3       1 <0>        -1.1371
     18 O7          3.7072   -8.9093   -6.3931 O.3       1 <0>        -0.8692
     19 H1          1.0039    1.9031    0.0027 H         1 <0>         0.0528
     20 H2         -0.5459    1.8868   -0.8726 H         1 <0>         0.0506
     21 H3         -0.5289    1.8773    0.9072 H         1 <0>         0.0455
     22 H4          0.5293   -0.3651    0.8851 H         1 <0>         0.0592
     23 H5         -1.0205   -0.3814    0.0098 H         1 <0>         0.0564
     24 H6          0.1910   -0.1364   -2.1398 H         1 <0>         0.0575
     25 H7          1.7408   -0.1202   -1.2645 H         1 <0>         0.0623
     26 H8          1.2661   -2.3884   -0.3821 H         1 <0>         0.0584
     27 H9         -0.2836   -2.4046   -1.2575 H         1 <0>         0.0524
     28 H10         0.9279   -2.1597   -3.4071 H         1 <0>         0.0526
     29 H11         2.4777   -2.1435   -2.5317 H         1 <0>         0.0668
     30 H12         2.0030   -4.4117   -1.6494 H         1 <0>         0.0529
     31 H13         0.4533   -4.4279   -2.5247 H         1 <0>         0.0365
     32 H14         1.6648   -4.1829   -4.6743 H         1 <0>         0.0405
     33 H15         3.2146   -4.1667   -3.7990 H         1 <0>         0.1238
     34 H16         2.7399   -6.4349   -2.9166 H         1 <0>         0.0664
     35 H17         1.1901   -6.4511   -3.7919 H         1 <0>         0.0209
     36 H18         1.3195   -6.3914   -6.2751 H         1 <0>         0.3106
     37 H19         3.7578   -9.8723   -6.4649 H         1 <0>         0.3793
@<TRIPOS>BOND
     1    1    2 1
     2    1   19 1
     3    1   20 1
     4    1   21 1
     5    2    3 1
     6    2   22 1
     7    2   23 1
     8    3    4 1
     9    3   24 1
    10    3   25 1
    11    4    5 1
    12    4   26 1
    13    4   27 1
    14    5    6 1
    15    5   28 1
    16    5   29 1
    17    6    7 1
    18    6   30 1
    19    6   31 1
    20    7    8 1
    21    7   32 1
    22    7   33 1
    23    8    9 1
    24    8   34 1
    25    8   35 1
    26    9   10 1
    27    9   11 1
    28    9   15 1
    29   10   36 1
    30   11   12 2
    31   11   13 1
    32   11   14 1
    33   15   16 2
    34   15   17 1
    35   15   18 1
    36   18   37 1
@<TRIPOS>MOLECULE
CHEMBL110971__1
   38    37     0     0     0
SMALL
USER_CHARGES

@<TRIPOS>ATOM
      1 C1         -0.0187    1.5258    0.0104 C.3       1 <0>        -0.1513
      2 C2          0.0021   -0.0041    0.0020 C.3       1 <0>        -0.1251
      3 C3          0.7182   -0.4975   -1.2568 C.3       1 <0>        -0.1208
      4 C4          0.7390   -2.0273   -1.2652 C.3       1 <0>        -0.1189
      5 C5          1.4551   -2.5207   -2.5240 C.3       1 <0>        -0.1167
      6 C6          1.4758   -4.0506   -2.5324 C.3       1 <0>        -0.1152
      7 C7          2.1920   -4.5440   -3.7912 C.3       1 <0>        -0.1502
      8 C8          2.2127   -6.0738   -3.7996 C.3       1 <0>        -0.1025
      9 C9          2.9289   -6.5673   -5.0584 C.3       1 <0>        -1.0369
     10 O1          2.2377   -6.0939   -6.2161 O.3       1 <0>        -0.5074
     11 P1          4.6391   -5.9363   -5.0714 P.3       1 <0>         2.2850
     12 O2          5.3623   -6.4345   -6.3425 O.2       1 <0>        -1.0919
     13 O3          4.6182   -4.3914   -5.0629 O.3       1 <0>        -1.0929
     14 O4          5.4178   -6.4696   -3.7670 O.3       1 <0>        -0.8855
     15 P2          2.9536   -8.3901   -5.0685 P.3       1 <0>         2.2447
     16 O5          3.7009   -8.9019   -3.8168 O.2       1 <0>        -1.0884
     17 O6          1.5041   -8.9248   -5.0575 O.3       1 <0>        -1.1075
     18 O7          3.7072   -8.9093   -6.3931 O.3       1 <0>        -0.8743
     19 H1          1.0039    1.9031    0.0027 H         1 <0>         0.0529
     20 H2         -0.5459    1.8868   -0.8726 H         1 <0>         0.0517
     21 H3         -0.5289    1.8773    0.9072 H         1 <0>         0.0483
     22 H4          0.5293   -0.3651    0.8851 H         1 <0>         0.0593
     23 H5         -1.0205   -0.3814    0.0098 H         1 <0>         0.0578
     24 H6          0.1910   -0.1364   -2.1398 H         1 <0>         0.0589
     25 H7          1.7408   -0.1202   -1.2645 H         1 <0>         0.0617
     26 H8          1.2661   -2.3884   -0.3821 H         1 <0>         0.0585
     27 H9         -0.2836   -2.4046   -1.2575 H         1 <0>         0.0554
     28 H10         0.9279   -2.1597   -3.4071 H         1 <0>         0.0564
     29 H11         2.4777   -2.1435   -2.5317 H         1 <0>         0.0656
     30 H12         2.0030   -4.4117   -1.6494 H         1 <0>         0.0534
     31 H13         0.4533   -4.4279   -2.5247 H         1 <0>         0.0449
     32 H14         1.6648   -4.1829   -4.6743 H         1 <0>         0.0537
     33 H15         3.2146   -4.1667   -3.7990 H         1 <0>         0.1213
     34 H16         2.7399   -6.4349   -2.9166 H         1 <0>         0.0658
     35 H17         1.1901   -6.4511   -3.7919 H         1 <0>         0.0496
     36 H18         1.3195   -6.3914   -6.2751 H         1 <0>         0.3440
     37 H19         6.3360   -6.1721   -3.7081 H         1 <0>         0.4004
     38 H20         3.7578   -9.8723   -6.4649 H         1 <0>         0.3960
@<TRIPOS>BOND
     1    1    2 1
     2    1   19 1
     3    1   20 1
     4    1   21 1
     5    2    3 1
     6    2   22 1
     7    2   23 1
     8    3    4 1
     9    3   24 1
    10    3   25 1
    11    4    5 1
    12    4   26 1
    13    4   27 1
    14    5    6 1
    15    5   28 1
    16    5   29 1
    17    6    7 1
    18    6   30 1
    19    6   31 1
    20    7    8 1
    21    7   32 1
    22    7   33 1
    23    8    9 1
    24    8   34 1
    25    8   35 1
    26    9   10 1
    27    9   11 1
    28    9   15 1
    29   10   36 1
    30   11   12 2
    31   11   13 1
    32   11   14 1
    33   14   37 1
    34   15   16 2
    35   15   17 1
    36   15   18 1
    37   18   38 1
@<TRIPOS>MOLECULE
CHEMBL280463
   27    26     0     0     0
SMALL
USER_CHARGES

@<TRIPOS>ATOM
      1 C1         -0.0187    1.5258    0.0104 C.3       1 <0>        -0.1437
      2 C2          0.0021   -0.0041    0.0020 C.3       1 <0>        -0.1236
      3 C3          0.7182   -0.4975   -1.2568 C.3       1 <0>        -0.1127
      4 C4          0.7390   -2.0273   -1.2652 C.3       1 <0>        -0.1543
      5 C5          1.4551   -2.5207   -2.5240 C.3       1 <0>        -0.0371
      6 C6          1.4758   -4.0506   -2.5324 C.3       1 <0>        -1.2856
      7 P1         -0.2293   -4.6807   -2.6693 P.3       1 <0>         2.2286
      8 O1         -1.0719   -4.1766   -1.4485 O.2       1 <0>        -1.1885
      9 O2         -0.8733   -4.1598   -3.9991 O.3       1 <0>        -1.1682
     10 O3         -0.2081   -6.2472   -2.6780 O.3       1 <0>        -1.1900
     11 P2          2.4563   -4.6372   -3.9529 P.3       1 <0>         2.2984
     12 O4          1.8212   -4.1236   -5.2643 O.2       1 <0>        -1.1035
     13 O5          3.9015   -4.1032   -3.8369 O.3       1 <0>        -1.1483
     14 O6          2.4782   -6.2470   -3.9618 O.3       1 <0>        -0.8817
     15 H1          1.0039    1.9031    0.0027 H         1 <0>         0.0439
     16 H2         -0.5459    1.8868   -0.8726 H         1 <0>         0.0504
     17 H3         -0.5289    1.8773    0.9072 H         1 <0>         0.0401
     18 H4          0.5293   -0.3651    0.8851 H         1 <0>         0.0506
     19 H5         -1.0205   -0.3814    0.0098 H         1 <0>         0.0668
     20 H6          0.1910   -0.1364   -2.1398 H         1 <0>         0.0553
     21 H7          1.7408   -0.1202   -1.2645 H         1 <0>         0.0374
     22 H8          1.2661   -2.3884   -0.3821 H         1 <0>         0.0258
     23 H9         -0.2836   -2.4046   -1.2575 H         1 <0>         0.1334
     24 H10         0.9279   -2.1597   -3.4071 H         1 <0>         0.0587
     25 H11         2.4777   -2.1435   -2.5317 H         1 <0>         0.0153
     26 H12         1.9239   -4.4130   -1.6072 H         1 <0>         0.0517
     27 H13         2.9832   -6.6295   -4.6923 H         1 <0>         0.3804
@<TRIPOS>BOND
     1    1    2 1
     2    1   15 1
     3    1   16 1
     4    1   17 1
     5    2    3 1
     6    2   18 1
     7    2   19 1
     8    3    4 1
     9    3   20 1
    10    3   21 1
    11    4    5 1
    12    4   22 1
    13    4   23 1
    14    5    6 1
    15    5   24 1
    16    5   25 1
    17    6    7 1
    18    6   11 1
    19    6   26 1
    20    7    8 2
    21    7    9 1
    22    7   10 1
    23   11   12 2
    24   11   13 1
    25   11   14 1
    26   14   27 1
@<TRIPOS>MOLECULE
CHEMBL280463__1
   28    27     0     0     0
SMALL
USER_CHARGES

@<TRIPOS>ATOM
      1 C1         -0.0187    1.5258    0.0104 C.3       1 <0>        -0.1474
      2 C2          0.0021   -0.0041    0.0020 C.3       1 <0>        -0.1251
      3 C3          0.7182   -0.4975   -1.2568 C.3       1 <0>        -0.1173
      4 C4          0.7390   -2.0273   -1.2652 C.3       1 <0>        -0.1352
      5 C5          1.4551   -2.5207   -2.5240 C.3       1 <0>        -0.0613
      6 C6          1.4758   -4.0506   -2.5324 C.3       1 <0>        -1.2927
      7 P1         -0.2293   -4.6807   -2.6693 P.3       1 <0>         2.2813
      8 O1         -0.1962   -6.1765   -3.0547 O.2       1 <0>        -1.0992
      9 O2         -0.9503   -4.5141   -1.3131 O.3       1 <0>        -1.1141
     10 O3         -1.0183   -3.8520   -3.8019 O.3       1 <0>        -0.8877
     11 P2          2.4563   -4.6372   -3.9529 P.3       1 <0>         2.2872
     12 O4          1.8212   -4.1236   -5.2643 O.2       1 <0>        -1.1052
     13 O5          3.9015   -4.1032   -3.8369 O.3       1 <0>        -1.1228
     14 O6          2.4782   -6.2470   -3.9618 O.3       1 <0>        -0.8796
     15 H1          1.0039    1.9031    0.0027 H         1 <0>         0.0486
     16 H2         -0.5459    1.8868   -0.8726 H         1 <0>         0.0515
     17 H3         -0.5289    1.8773    0.9072 H         1 <0>         0.0462
     18 H4          0.5293   -0.3651    0.8851 H         1 <0>         0.0565
     19 H5         -1.0205   -0.3814    0.0098 H         1 <0>         0.0641
     20 H6          0.1910   -0.1364   -2.1398 H         1 <0>         0.0589
     21 H7          1.7408   -0.1202   -1.2645 H         1 <0>         0.0521
     22 H8          1.2661   -2.3884   -0.3821 H         1 <0>         0.0483
     23 H9         -0.2836   -2.4046   -1.2575 H         1 <0>         0.0893
     24 H10         0.9279   -2.1597   -3.4071 H         1 <0>         0.0641
     25 H11         2.4777   -2.1435   -2.5317 H         1 <0>         0.0496
     26 H12         1.9239   -4.4130   -1.6072 H         1 <0>         0.0981
     27 H13        -1.9345   -4.1342   -3.9293 H         1 <0>         0.3971
     28 H14         2.9832   -6.6295   -4.6923 H         1 <0>         0.3947
@<TRIPOS>BOND
     1    1    2 1
     2    1   15 1
     3    1   16 1
     4    1   17 1
     5    2    3 1
     6    2   18 1
     7    2   19 1
     8    3    4 1
     9    3   20 1
    10    3   21 1
    11    4    5 1
    12    4   22 1
    13    4   23 1
    14    5    6 1
    15    5   24 1
    16    5   25 1
    17    6    7 1
    18    6   11 1
    19    6   26 1
    20    7    8 2
    21    7    9 1
    22    7   10 1
    23   10   27 1
    24   11   12 2
    25   11   13 1
    26   11   14 1
    27   14   28 1
@<TRIPOS>MOLECULE
CHEMBL322551
   24    23     0     0     0
SMALL
USER_CHARGES

@<TRIPOS>ATOM
      1 C1         -0.0187    1.5258    0.0104 C.3       1 <0>        -0.1399
      2 C2          0.0021   -0.0041    0.0020 C.3       1 <0>        -0.1201
      3 C3          0.7182   -0.4975   -1.2568 C.3       1 <0>        -0.1543
      4 C4          0.7390   -2.0273   -1.2652 C.3       1 <0>        -0.0378
      5 C5          1.4551   -2.5207   -2.5240 C.3       1 <0>        -1.2853
      6 P1          3.2055   -2.0150   -2.4650 P.3       1 <0>         2.2282
      7 O1          3.2955   -0.4526   -2.3915 O.2       1 <0>        -1.1886
      8 O2          3.8866   -2.6375   -1.1988 O.3       1 <0>        -1.1679
      9 O3          3.9389   -2.5202   -3.7540 O.3       1 <0>        -1.1899
     10 P2          1.3504   -4.3387   -2.6096 P.3       1 <0>         2.2984
     11 O4          2.0220   -4.9526   -1.3609 O.2       1 <0>        -1.1034
     12 O5         -0.1331   -4.7673   -2.6596 O.3       1 <0>        -1.1483
     13 O6          2.1040   -4.8579   -3.9342 O.3       1 <0>        -0.8816
     14 H1          1.0039    1.9031    0.0027 H         1 <0>         0.0578
     15 H2         -0.5459    1.8868   -0.8726 H         1 <0>         0.0415
     16 H3         -0.5289    1.8773    0.9072 H         1 <0>         0.0328
     17 H4          0.5293   -0.3651    0.8851 H         1 <0>         0.0554
     18 H5         -1.0205   -0.3814    0.0098 H         1 <0>         0.0371
     19 H6          0.1910   -0.1364   -2.1398 H         1 <0>         0.0259
     20 H7          1.7408   -0.1202   -1.2645 H         1 <0>         0.1334
     21 H8          1.2661   -2.3884   -0.3821 H         1 <0>         0.0589
     22 H9         -0.2836   -2.4046   -1.2575 H         1 <0>         0.0154
     23 H10         0.9813   -2.0877   -3.4049 H         1 <0>         0.0517
     24 H11         2.0880   -5.8185   -4.0448 H         1 <0>         0.3805
@<TRIPOS>BOND
     1    1    2 1
     2    1   14 1
     3    1   15 1
     4    1   16 1
     5    2    3 1
     6    2   17 1
     7    2   18 1
     8    3    4 1
     9    3   19 1
    10    3   20 1
    11    4    5 1
    12    4   21 1
    13    4   22 1
    14    5    6 1
    15    5   10 1
    16    5   23 1
    17    6    7 2
    18    6    8 1
    19    6    9 1
    20   10   11 2
    21   10   12 1
    22   10   13 1
    23   13   24 1
@<TRIPOS>MOLECULE
CHEMBL322551__1
   25    24     0     0     0
SMALL
USER_CHARGES

@<TRIPOS>ATOM
      1 C1         -0.0187    1.5258    0.0104 C.3       1 <0>        -0.1443
      2 C2          0.0021   -0.0041    0.0020 C.3       1 <0>        -0.1220
      3 C3          0.7182   -0.4975   -1.2568 C.3       1 <0>        -0.1549
      4 C4          0.7390   -2.0273   -1.2652 C.3       1 <0>        -0.0573
      5 C5          1.4551   -2.5207   -2.5240 C.3       1 <0>        -1.2901
      6 P1          1.6112   -4.3360   -2.4622 P.3       1 <0>         2.2750
      7 O1          2.4266   -4.7406   -1.2138 O.2       1 <0>        -1.1192
      8 O2          0.2050   -4.9716   -2.3871 O.3       1 <0>        -1.0973
      9 O3          2.3648   -4.8552   -3.7869 O.3       1 <0>        -0.8846
     10 P2          0.4930   -2.0434   -3.9970 P.3       1 <0>         2.2817
     11 O4          0.3607   -0.5049   -4.0494 O.2       1 <0>        -1.1071
     12 O5          1.2162   -2.5416   -5.2682 O.3       1 <0>        -1.1044
     13 O6         -0.9723   -2.7057   -3.9188 O.3       1 <0>        -0.8818
     14 H1          1.0039    1.9031    0.0027 H         1 <0>         0.0467
     15 H2         -0.5459    1.8868   -0.8726 H         1 <0>         0.0571
     16 H3         -0.5289    1.8773    0.9072 H         1 <0>         0.0408
     17 H4          0.5293   -0.3651    0.8851 H         1 <0>         0.0469
     18 H5         -1.0205   -0.3814    0.0098 H         1 <0>         0.0562
     19 H6          0.1910   -0.1364   -2.1398 H         1 <0>         0.1205
     20 H7          1.7408   -0.1202   -1.2645 H         1 <0>         0.0423
     21 H8          1.2661   -2.3884   -0.3821 H         1 <0>         0.0461
     22 H9         -0.2836   -2.4046   -1.2575 H         1 <0>         0.0589
     23 H10         2.4472   -2.0723   -2.5770 H         1 <0>         0.0980
     24 H11         2.4830   -5.8143   -3.8217 H         1 <0>         0.3967
     25 H12        -1.5405   -2.4937   -4.6720 H         1 <0>         0.3961
@<TRIPOS>BOND
     1    1    2 1
     2    1   14 1
     3    1   15 1
     4    1   16 1
     5    2    3 1
     6    2   17 1
     7    2   18 1
     8    3    4 1
     9    3   19 1
    10    3   20 1
    11    4    5 1
    12    4   21 1
    13    4   22 1
    14    5    6 1
    15    5   10 1
    16    5   23 1
    17    6    7 2
    18    6    8 1
    19    6    9 1
    20    9   24 1
    21   10   11 2
    22   10   12 1
    23   10   13 1
    24   13   25 1
@<TRIPOS>MOLECULE
CHEMBL301244
   41    41     0     0     0
SMALL
USER_CHARGES

@<TRIPOS>ATOM
      1 C1         -0.0178    1.4648    0.0101 C.3       1 <0>        -0.0538
      2 N1          0.0021   -0.0041    0.0020 N.4       1 <0>        -0.3826
      3 C2          0.7126   -0.4907    1.1921 C.3       1 <0>        -0.0018
      4 C3         -0.0711   -0.1034    2.4478 C.3       1 <0>        -0.1041
      5 C4          0.6578   -0.6026    3.6687 C.ar      1 <0>        -0.0875
      6 C5          0.3905   -1.8647    4.1653 C.ar      1 <0>        -0.1064
      7 C6          1.0591   -2.3227    5.2853 C.ar      1 <0>        -0.1159
      8 C7          1.9952   -1.5187    5.9083 C.ar      1 <0>        -0.1177
      9 C8          2.2631   -0.2569    5.4111 C.ar      1 <0>        -0.1205
     10 C9          1.5977    0.1993    4.2887 C.ar      1 <0>        -0.1121
     11 C10         0.6897   -0.4778   -1.2066 C.3       1 <0>        -0.0341
     12 C11        -0.1178   -0.0772   -2.4429 C.3       1 <0>        -0.1131
     13 C12         0.5984   -0.5706   -3.7017 C.3       1 <0>        -1.0251
     14 O1          1.8990    0.0173   -3.7711 O.3       1 <0>        -0.5139
     15 P1          0.7545   -2.3858   -3.6399 P.3       1 <0>         2.1980
     16 O2          1.6870   -2.7895   -2.4474 O.2       1 <0>        -1.1667
     17 O3         -0.6611   -3.0251   -3.4354 O.3       1 <0>        -1.1492
     18 O4          1.3718   -2.9029   -4.9838 O.3       1 <0>        -1.1565
     19 P2         -0.3637   -0.0932   -5.1747 P.3       1 <0>         2.2764
     20 O5         -1.7699   -0.7288   -5.0996 O.2       1 <0>        -1.0899
     21 O6         -0.4961    1.4452   -5.2271 O.3       1 <0>        -1.1287
     22 O7          0.3899   -0.6124   -6.4993 O.3       1 <0>        -0.8702
     23 H1          1.0047    1.8421    0.0024 H         1 <0>         0.1108
     24 H2         -0.5450    1.8259   -0.8730 H         1 <0>         0.1247
     25 H3         -0.5280    1.8163    0.9069 H         1 <0>         0.1073
     26 H4          0.8051   -1.5756    1.1418 H         1 <0>         0.1354
     27 H5          1.7055   -0.0428    1.2310 H         1 <0>         0.1208
     28 H6         -0.1636    0.9815    2.4982 H         1 <0>         0.0897
     29 H7         -1.0641   -0.5514    2.4090 H         1 <0>         0.0944
     30 H8         -0.3409   -2.4929    3.6786 H         1 <0>         0.1295
     31 H9          0.8498   -3.3084    5.6737 H         1 <0>         0.1255
     32 H10         2.5171   -1.8762    6.7837 H         1 <0>         0.1218
     33 H11         2.9943    0.3713    5.8981 H         1 <0>         0.1222
     34 H12         1.8096    1.1836    3.8981 H         1 <0>         0.1221
     35 H13         1.6817   -0.0294   -1.2596 H         1 <0>         0.1140
     36 H14         0.7830   -1.5632   -1.1697 H         1 <0>         0.1837
     37 H15        -1.1099   -0.5256   -2.3899 H         1 <0>         0.0933
     38 H16        -0.2111    1.0082   -2.4798 H         1 <0>         0.0525
     39 H17         1.8924    0.9836   -3.8068 H         1 <0>         0.3193
     40 H18        -0.0667   -0.3932   -7.3231 H         1 <0>         0.3887
     41 H19        -0.9445   -0.3533    0.0092 H         1 <0>         0.4195
@<TRIPOS>BOND
     1    1    2 1
     2    1   23 1
     3    1   24 1
     4    1   25 1
     5    2    3 1
     6    2   11 1
     7    2   41 1
     8    3    4 1
     9    3   26 1
    10    3   27 1
    11    4    5 1
    12    4   28 1
    13    4   29 1
    14    5   10 ar
    15    5    6 ar
    16    6    7 ar
    17    6   30 1
    18    7    8 ar
    19    7   31 1
    20    8    9 ar
    21    8   32 1
    22    9   10 ar
    23    9   33 1
    24   10   34 1
    25   11   12 1
    26   11   35 1
    27   11   36 1
    28   12   13 1
    29   12   37 1
    30   12   38 1
    31   13   14 1
    32   13   15 1
    33   13   19 1
    34   14   39 1
    35   15   16 2
    36   15   17 1
    37   15   18 1
    38   19   20 2
    39   19   21 1
    40   19   22 1
    41   22   40 1
@<TRIPOS>MOLECULE
CHEMBL301244__1
   42    42     0     0     0
SMALL
USER_CHARGES

@<TRIPOS>ATOM
      1 C1         -0.0178    1.4648    0.0101 C.3       1 <0>        -0.0572
      2 N1          0.0021   -0.0041    0.0020 N.4       1 <0>        -0.3831
      3 C2          0.6897   -0.4778   -1.2066 C.3       1 <0>        -0.0032
      4 C3          2.1588   -0.0534   -1.1571 C.3       1 <0>        -0.1027
      5 C4          2.8642   -0.5394   -2.3969 C.ar      1 <0>        -0.0948
      6 C5          3.4594   -1.7869   -2.4094 C.ar      1 <0>        -0.1079
      7 C6          4.1064   -2.2328   -3.5467 C.ar      1 <0>        -0.1153
      8 C7          4.1578   -1.4312   -4.6717 C.ar      1 <0>        -0.1128
      9 C8          3.5618   -0.1839   -4.6596 C.ar      1 <0>        -0.1177
     10 C9          2.9111    0.2601   -3.5237 C.ar      1 <0>        -0.1110
     11 C10        -1.3761   -0.5125    0.0124 C.3       1 <0>        -0.0446
     12 C11        -2.0530   -0.1242    1.3284 C.3       1 <0>        -0.1348
     13 C12        -3.4884   -0.6537    1.3393 C.3       1 <0>        -1.0293
     14 O1         -4.2133   -0.0877    0.2455 O.3       1 <0>        -0.5027
     15 P1         -3.4674   -2.4696    1.1795 P.3       1 <0>         2.2714
     16 O2         -4.9168   -3.0044    1.1905 O.2       1 <0>        -1.0720
     17 O3         -2.7838   -2.8618   -0.1494 O.3       1 <0>        -1.0869
     18 O4         -2.6507   -3.1073    2.4118 O.3       1 <0>        -0.8861
     19 P2         -4.2950   -0.1910    2.9073 P.3       1 <0>         2.2438
     20 O5         -3.5113   -0.8030    4.0898 O.2       1 <0>        -1.0787
     21 O6         -4.3128    1.3480    3.0427 O.3       1 <0>        -1.0979
     22 O7         -5.8055   -0.7482    2.9187 O.3       1 <0>        -0.8741
     23 H1          1.0047    1.8421    0.0024 H         1 <0>         0.1153
     24 H2         -0.5450    1.8259   -0.8730 H         1 <0>         0.1165
     25 H3         -0.5280    1.8163    0.9069 H         1 <0>         0.1255
     26 H4          0.6271   -1.5648   -1.2578 H         1 <0>         0.1353
     27 H5          0.2159   -0.0447   -2.0875 H         1 <0>         0.1255
     28 H6          2.2214    1.0336   -1.1059 H         1 <0>         0.0919
     29 H7          2.6326   -0.4865   -0.2761 H         1 <0>         0.0940
     30 H8          3.4192   -2.4132   -1.5304 H         1 <0>         0.1270
     31 H9          4.5720   -3.2072   -3.5562 H         1 <0>         0.1269
     32 H10         4.6640   -1.7792   -5.5600 H         1 <0>         0.1248
     33 H11         3.6023    0.4425   -5.5384 H         1 <0>         0.1250
     34 H12         2.4423    1.2330   -3.5154 H         1 <0>         0.1228
     35 H13        -1.9290   -0.0808   -0.8218 H         1 <0>         0.1261
     36 H14        -1.3635   -1.5983   -0.0831 H         1 <0>         0.1817
     37 H15        -1.5001   -0.5559    2.1627 H         1 <0>         0.0932
     38 H16        -2.0656    0.9616    1.4239 H         1 <0>         0.0803
     39 H17        -4.2652    0.8777    0.2657 H         1 <0>         0.3519
     40 H18        -2.5988   -4.0727    2.3916 H         1 <0>         0.4101
     41 H19        -6.2960   -0.5384    3.7252 H         1 <0>         0.4048
     42 H20         0.4901   -0.3383    0.8195 H         1 <0>         0.4190
@<TRIPOS>BOND
     1    1    2 1
     2    1   23 1
     3    1   24 1
     4    1   25 1
     5    2    3 1
     6    2   11 1
     7    2   42 1
     8    3    4 1
     9    3   26 1
    10    3   27 1
    11    4    5 1
    12    4   28 1
    13    4   29 1
    14    5   10 ar
    15    5    6 ar
    16    6    7 ar
    17    6   30 1
    18    7    8 ar
    19    7   31 1
    20    8    9 ar
    21    8   32 1
    22    9   10 ar
    23    9   33 1
    24   10   34 1
    25   11   12 1
    26   11   35 1
    27   11   36 1
    28   12   13 1
    29   12   37 1
    30   12   38 1
    31   13   14 1
    32   13   15 1
    33   13   19 1
    34   14   39 1
    35   15   16 2
    36   15   17 1
    37   15   18 1
    38   18   40 1
    39   19   20 2
    40   19   21 1
    41   19   22 1
    42   22   41 1
@<TRIPOS>MOLECULE
CHEMBL298852
   43    42     0     0     0
SMALL
USER_CHARGES

@<TRIPOS>ATOM
      1 C1         -0.0187    1.5258    0.0104 C.3       1 <0>        -0.1513
      2 C2          0.0021   -0.0041    0.0020 C.3       1 <0>        -0.1254
      3 C3          0.7182   -0.4975   -1.2568 C.3       1 <0>        -0.1211
      4 C4          0.7390   -2.0273   -1.2652 C.3       1 <0>        -0.1190
      5 C5          1.4551   -2.5207   -2.5240 C.3       1 <0>        -0.1203
      6 C6          1.4758   -4.0506   -2.5324 C.3       1 <0>        -0.1169
      7 C7          2.1920   -4.5440   -3.7912 C.3       1 <0>        -0.1160
      8 C8          2.2127   -6.0738   -3.7996 C.3       1 <0>        -0.1132
      9 C9          2.9289   -6.5673   -5.0584 C.3       1 <0>        -0.1388
     10 C10         2.9496   -8.0971   -5.0668 C.3       1 <0>        -0.0832
     11 C11         3.6658   -8.5905   -6.3257 C.3       1 <0>        -1.0345
     12 O1          2.9746   -8.1171   -7.4834 O.3       1 <0>        -0.5177
     13 P1          5.3760   -7.9595   -6.3386 P.3       1 <0>         2.2257
     14 O2          5.3555   -6.3976   -6.4587 O.2       1 <0>        -1.1791
     15 O3          6.0948   -8.3716   -5.0089 O.3       1 <0>        -1.1656
     16 O4          6.1476   -8.5671   -7.5592 O.3       1 <0>        -1.1784
     17 P2          3.6905  -10.4133   -6.3357 P.3       1 <0>         2.2727
     18 O5          4.4377  -10.9251   -5.0840 O.2       1 <0>        -1.0980
     19 O6          2.2410  -10.9481   -6.3247 O.3       1 <0>        -1.1371
     20 O7          4.4440  -10.9325   -7.6603 O.3       1 <0>        -0.8692
     21 H1          1.0039    1.9031    0.0027 H         1 <0>         0.0528
     22 H2         -0.5459    1.8868   -0.8726 H         1 <0>         0.0516
     23 H3         -0.5289    1.8773    0.9072 H         1 <0>         0.0480
     24 H4          0.5293   -0.3651    0.8851 H         1 <0>         0.0596
     25 H5         -1.0205   -0.3814    0.0098 H         1 <0>         0.0582
     26 H6          0.1910   -0.1364   -2.1398 H         1 <0>         0.0589
     27 H7          1.7408   -0.1202   -1.2645 H         1 <0>         0.0611
     28 H8          1.2661   -2.3884   -0.3821 H         1 <0>         0.0595
     29 H9         -0.2836   -2.4046   -1.2575 H         1 <0>         0.0568
     30 H10         0.9279   -2.1597   -3.4071 H         1 <0>         0.0574
     31 H11         2.4777   -2.1435   -2.5317 H         1 <0>         0.0622
     32 H12         2.0030   -4.4117   -1.6494 H         1 <0>         0.0583
     33 H13         0.4533   -4.4279   -2.5247 H         1 <0>         0.0524
     34 H14         1.6648   -4.1829   -4.6743 H         1 <0>         0.0525
     35 H15         3.2146   -4.1667   -3.7990 H         1 <0>         0.0667
     36 H16         2.7399   -6.4349   -2.9166 H         1 <0>         0.0528
     37 H17         1.1901   -6.4511   -3.7919 H         1 <0>         0.0364
     38 H18         2.4017   -6.2062   -5.9415 H         1 <0>         0.0404
     39 H19         3.9515   -6.1900   -5.0662 H         1 <0>         0.1238
     40 H20         3.4768   -8.4582   -4.1838 H         1 <0>         0.0663
     41 H21         1.9270   -8.4744   -5.0591 H         1 <0>         0.0209
     42 H22         2.0564   -8.4146   -7.5423 H         1 <0>         0.3106
     43 H23         4.4947  -11.8955   -7.7321 H         1 <0>         0.3793
@<TRIPOS>BOND
     1    1    2 1
     2    1   21 1
     3    1   22 1
     4    1   23 1
     5    2    3 1
     6    2   24 1
     7    2   25 1
     8    3    4 1
     9    3   26 1
    10    3   27 1
    11    4    5 1
    12    4   28 1
    13    4   29 1
    14    5    6 1
    15    5   30 1
    16    5   31 1
    17    6    7 1
    18    6   32 1
    19    6   33 1
    20    7    8 1
    21    7   34 1
    22    7   35 1
    23    8    9 1
    24    8   36 1
    25    8   37 1
    26    9   10 1
    27    9   38 1
    28    9   39 1
    29   10   11 1
    30   10   40 1
    31   10   41 1
    32   11   12 1
    33   11   13 1
    34   11   17 1
    35   12   42 1
    36   13   14 2
    37   13   15 1
    38   13   16 1
    39   17   18 2
    40   17   19 1
    41   17   20 1
    42   20   43 1
@<TRIPOS>MOLECULE
CHEMBL298852__1
   44    43     0     0     0
SMALL
USER_CHARGES

@<TRIPOS>ATOM
      1 C1         -0.0187    1.5258    0.0104 C.3       1 <0>        -0.1523
      2 C2          0.0021   -0.0041    0.0020 C.3       1 <0>        -0.1257
      3 C3          0.7182   -0.4975   -1.2568 C.3       1 <0>        -0.1211
      4 C4          0.7390   -2.0273   -1.2652 C.3       1 <0>        -0.1198
      5 C5          1.4551   -2.5207   -2.5240 C.3       1 <0>        -0.1203
      6 C6          1.4758   -4.0506   -2.5324 C.3       1 <0>        -0.1184
      7 C7          2.1920   -4.5440   -3.7912 C.3       1 <0>        -0.1166
      8 C8          2.2127   -6.0738   -3.7996 C.3       1 <0>        -0.1151
      9 C9          2.9289   -6.5673   -5.0584 C.3       1 <0>        -0.1502
     10 C10         2.9496   -8.0971   -5.0668 C.3       1 <0>        -0.1025
     11 C11         3.6658   -8.5905   -6.3257 C.3       1 <0>        -1.0371
     12 O1          2.9746   -8.1171   -7.4834 O.3       1 <0>        -0.5074
     13 P1          5.3760   -7.9595   -6.3386 P.3       1 <0>         2.2851
     14 O2          6.0992   -8.4578   -7.6097 O.2       1 <0>        -1.0919
     15 O3          5.3551   -6.4147   -6.3301 O.3       1 <0>        -1.0929
     16 O4          6.1547   -8.4928   -5.0342 O.3       1 <0>        -0.8855
     17 P2          3.6905  -10.4133   -6.3357 P.3       1 <0>         2.2447
     18 O5          4.4377  -10.9251   -5.0840 O.2       1 <0>        -1.0883
     19 O6          2.2410  -10.9481   -6.3247 O.3       1 <0>        -1.1075
     20 O7          4.4440  -10.9325   -7.6603 O.3       1 <0>        -0.8743
     21 H1          1.0039    1.9031    0.0027 H         1 <0>         0.0529
     22 H2         -0.5459    1.8868   -0.8726 H         1 <0>         0.0523
     23 H3         -0.5289    1.8773    0.9072 H         1 <0>         0.0499
     24 H4          0.5293   -0.3651    0.8851 H         1 <0>         0.0597
     25 H5         -1.0205   -0.3814    0.0098 H         1 <0>         0.0590
     26 H6          0.1910   -0.1364   -2.1398 H         1 <0>         0.0597
     27 H7          1.7408   -0.1202   -1.2645 H         1 <0>         0.0608
     28 H8          1.2661   -2.3884   -0.3821 H         1 <0>         0.0596
     29 H9         -0.2836   -2.4046   -1.2575 H         1 <0>         0.0582
     30 H10         0.9279   -2.1597   -3.4071 H         1 <0>         0.0588
     31 H11         2.4777   -2.1435   -2.5317 H         1 <0>         0.0616
     32 H12         2.0030   -4.4117   -1.6494 H         1 <0>         0.0584
     33 H13         0.4533   -4.4279   -2.5247 H         1 <0>         0.0553
     34 H14         1.6648   -4.1829   -4.6743 H         1 <0>         0.0563
     35 H15         3.2146   -4.1667   -3.7990 H         1 <0>         0.0655
     36 H16         2.7399   -6.4349   -2.9166 H         1 <0>         0.0533
     37 H17         1.1901   -6.4511   -3.7919 H         1 <0>         0.0449
     38 H18         2.4017   -6.2062   -5.9415 H         1 <0>         0.0537
     39 H19         3.9515   -6.1900   -5.0662 H         1 <0>         0.1213
     40 H20         3.4768   -8.4582   -4.1838 H         1 <0>         0.0658
     41 H21         1.9270   -8.4744   -5.0591 H         1 <0>         0.0496
     42 H22         2.0564   -8.4146   -7.5423 H         1 <0>         0.3440
     43 H23         7.0729   -8.1953   -4.9753 H         1 <0>         0.4004
     44 H24         4.4947  -11.8955   -7.7321 H         1 <0>         0.3960
@<TRIPOS>BOND
     1    1    2 1
     2    1   21 1
     3    1   22 1
     4    1   23 1
     5    2    3 1
     6    2   24 1
     7    2   25 1
     8    3    4 1
     9    3   26 1
    10    3   27 1
    11    4    5 1
    12    4   28 1
    13    4   29 1
    14    5    6 1
    15    5   30 1
    16    5   31 1
    17    6    7 1
    18    6   32 1
    19    6   33 1
    20    7    8 1
    21    7   34 1
    22    7   35 1
    23    8    9 1
    24    8   36 1
    25    8   37 1
    26    9   10 1
    27    9   38 1
    28    9   39 1
    29   10   11 1
    30   10   40 1
    31   10   41 1
    32   11   12 1
    33   11   13 1
    34   11   17 1
    35   12   42 1
    36   13   14 2
    37   13   15 1
    38   13   16 1
    39   16   43 1
    40   17   18 2
    41   17   19 1
    42   17   20 1
    43   20   44 1
@<TRIPOS>MOLECULE
CHEMBL294478
   27    26     0     0     0
SMALL
USER_CHARGES

@<TRIPOS>ATOM
      1 C1         -0.3863    1.8332    0.0908 C.3       1 <0>        -0.1645
      2 C2         -0.1271    0.3254    0.1020 C.3       1 <0>        -0.1213
      3 C3          0.6033   -0.0570    1.3910 C.3       1 <0>        -0.1387
      4 C4         -1.4603   -0.4219    0.0304 C.3       1 <0>        -0.0283
      5 N1         -2.1062   -0.1482   -1.2603 N.4       1 <0>        -0.4306
      6 C5         -3.4436   -0.7557   -1.2770 C.3       1 <0>        -1.1463
      7 P1         -3.2875   -2.5707   -1.2079 P.3       1 <0>         2.1291
      8 O1         -2.3420   -3.0577   -2.3582 O.2       1 <0>        -1.1214
      9 O2         -2.6854   -2.9907    0.1761 O.3       1 <0>        -1.1451
     10 O3         -4.7011   -3.2234   -1.3821 O.3       1 <0>        -1.1262
     11 P2         -4.3088   -0.2781   -2.8089 P.3       1 <0>         2.2704
     12 O4         -4.4411    1.2601   -2.8675 O.2       1 <0>        -1.1108
     13 O5         -3.5032   -0.7726   -4.0310 O.3       1 <0>        -1.0698
     14 O6         -5.7746   -0.9439   -2.8273 O.3       1 <0>        -0.8693
     15 H1          0.5635    2.3656    0.1419 H         1 <0>         0.0682
     16 H2         -0.9066    2.1056   -0.8274 H         1 <0>         0.0559
     17 H3         -1.0005    2.1027    0.9501 H         1 <0>         0.0620
     18 H4          0.4871    0.0559   -0.7572 H         1 <0>         0.0890
     19 H5         -0.0109    0.2125    2.2502 H         1 <0>         0.0581
     20 H6          0.7879   -1.1312    1.3990 H         1 <0>         0.0711
     21 H7          1.5530    0.4754    1.4420 H         1 <0>         0.0600
     22 H8         -1.2822   -1.4928    0.1277 H         1 <0>         0.1727
     23 H9         -2.1088   -0.0863    0.8397 H         1 <0>         0.1032
     24 H10        -2.1881    0.8490   -1.3906 H         1 <0>         0.3868
     25 H11        -4.0120   -0.4068   -0.4149 H         1 <0>         0.1186
     26 H12        -6.2930   -0.7319   -3.6156 H         1 <0>         0.4010
     27 H13        -1.5494   -0.5401   -2.0049 H         1 <0>         0.4260
@<TRIPOS>BOND
     1    1    2 1
     2    1   15 1
     3    1   16 1
     4    1   17 1
     5    2    3 1
     6    2    4 1
     7    2   18 1
     8    3   19 1
     9    3   20 1
    10    3   21 1
    11    4    5 1
    12    4   22 1
    13    4   23 1
    14    5    6 1
    15    5   24 1
    16    5   27 1
    17    6    7 1
    18    6   11 1
    19    6   25 1
    20    7    8 2
    21    7    9 1
    22    7   10 1
    23   11   12 2
    24   11   13 1
    25   11   14 1
    26   14   26 1
@<TRIPOS>MOLECULE
CHEMBL294478__1
   26    25     0     0     0
SMALL
USER_CHARGES

@<TRIPOS>ATOM
      1 C1          0.5435    1.0007   -0.7221 C.3       1 <0>        -0.1348
      2 C2          0.3380   -0.4942   -0.4696 C.3       1 <0>        -0.1229
      3 C3          1.0404   -0.8933    0.8297 C.3       1 <0>        -0.1619
      4 C4         -1.1584   -0.7906   -0.3522 C.3       1 <0>        -0.0315
      5 N1         -1.3623   -2.2403   -0.2296 N.4       1 <0>        -0.4295
      6 C5         -2.7845   -2.5158    0.0145 C.3       1 <0>        -1.1303
      7 P1         -3.7556   -2.0447   -1.4546 P.3       1 <0>         2.1827
      8 O1         -3.6924   -0.4911   -1.6462 O.2       1 <0>        -1.1789
      9 O2         -3.1631   -2.7517   -2.7209 O.3       1 <0>        -1.1501
     10 O3         -5.2459   -2.4866   -1.2591 O.3       1 <0>        -1.1356
     11 P2         -3.0104   -4.2938    0.3479 P.3       1 <0>         2.1767
     12 O4         -2.5226   -5.1230   -0.8886 O.2       1 <0>        -1.1476
     13 O5         -2.1759   -4.6986    1.6104 O.3       1 <0>        -1.1907
     14 O6         -4.5271   -4.5876    0.6082 O.3       1 <0>        -1.1358
     15 H1          1.6095    1.2119   -0.8057 H         1 <0>         0.0536
     16 H2          0.0430    1.2851   -1.6477 H         1 <0>         0.0685
     17 H3          0.1242    1.5703    0.1074 H         1 <0>         0.0554
     18 H4          0.7572   -1.0638   -1.2990 H         1 <0>         0.0852
     19 H5          2.1065   -0.6822    0.7460 H         1 <0>         0.0612
     20 H6          0.6212   -0.3238    1.6591 H         1 <0>         0.0594
     21 H7          0.8940   -1.9584    1.0095 H         1 <0>         0.0594
     22 H8         -1.5596   -0.2914    0.5298 H         1 <0>         0.0946
     23 H9         -1.6721   -0.4254   -1.2415 H         1 <0>         0.1664
     24 H10        -1.0736   -2.6939   -1.0834 H         1 <0>         0.4184
     25 H11        -3.1239   -1.9388    0.8748 H         1 <0>         0.0906
     26 H12        -0.8143   -2.5930    0.5407 H         1 <0>         0.3776
@<TRIPOS>BOND
     1    1    2 1
     2    1   15 1
     3    1   16 1
     4    1   17 1
     5    2    3 1
     6    2    4 1
     7    2   18 1
     8    3   19 1
     9    3   20 1
    10    3   21 1
    11    4    5 1
    12    4   22 1
    13    4   23 1
    14    5    6 1
    15    5   24 1
    16    5   26 1
    17    6    7 1
    18    6   11 1
    19    6   25 1
    20    7    8 2
    21    7    9 1
    22    7   10 1
    23   11   12 2
    24   11   13 1
    25   11   14 1
@<TRIPOS>MOLECULE
CHEMBL923
   25    25     0     0     0
SMALL
USER_CHARGES

@<TRIPOS>ATOM
      1 C1         -0.0167    1.3776    0.0096 C.ar      1 <0>        -0.2189
      2 C2          1.1849    2.0698    0.0019 C.ar      1 <0>        -0.0778
      3 C3          2.3651    1.3426   -0.0133 C.ar      1 <0>        -0.0974
      4 C4          2.3054   -0.0383   -0.0202 C.ar      1 <0>         0.2026
      5 N1          1.1443   -0.6632   -0.0129 N.ar      1 <0>        -0.4933
      6 C5          0.0021   -0.0041    0.0020 C.ar      1 <0>         0.0694
      7 C6          3.6964    2.0488   -0.0227 C.3       1 <0>        -0.0587
      8 C7          4.1610    2.2805    1.4165 C.3       1 <0>        -1.0232
      9 O1          3.2001    3.0846    2.1036 O.3       1 <0>        -0.5126
     10 P1          4.3300    0.6765    2.2662 P.3       1 <0>         2.2096
     11 O2          2.9224   -0.0003    2.3889 O.2       1 <0>        -1.1551
     12 O3          5.2860   -0.2523    1.4430 O.3       1 <0>        -1.1595
     13 O4          4.9267    0.9037    3.6968 O.3       1 <0>        -1.1738
     14 P2          5.7714    3.1348    1.4051 P.3       1 <0>         2.2736
     15 O5          6.8103    2.2654    0.6622 O.2       1 <0>        -1.0950
     16 O6          5.6282    4.4942    0.6850 O.3       1 <0>        -1.1341
     17 O7          6.2603    3.3787    2.9196 O.3       1 <0>        -0.8692
     18 H1         -0.9552    1.9117    0.0259 H         1 <0>         0.1028
     19 H2          1.2009    3.1496    0.0072 H         1 <0>         0.1051
     20 H3          3.2203   -0.6121   -0.0320 H         1 <0>         0.1604
     21 H4         -0.9294   -0.5505    0.0083 H         1 <0>         0.1257
     22 H5          4.4293    1.4355   -0.5468 H         1 <0>         0.0836
     23 H6          3.5953    3.0079   -0.5308 H         1 <0>         0.0435
     24 H7          3.0587    3.9546    1.7058 H         1 <0>         0.3114
     25 H8          7.1126    3.8300    2.9899 H         1 <0>         0.3810
@<TRIPOS>BOND
     1    1    6 ar
     2    1    2 ar
     3    1   18 1
     4    2    3 ar
     5    2   19 1
     6    3    4 ar
     7    3    7 1
     8    4    5 ar
     9    4   20 1
    10    5    6 ar
    11    6   21 1
    12    7    8 1
    13    7   22 1
    14    7   23 1
    15    8    9 1
    16    8   10 1
    17    8   14 1
    18    9   24 1
    19   10   11 2
    20   10   12 1
    21   10   13 1
    22   14   15 2
    23   14   16 1
    24   14   17 1
    25   17   25 1
@<TRIPOS>MOLECULE
CHEMBL923__1
   26    26     0     0     0
SMALL
USER_CHARGES

@<TRIPOS>ATOM
      1 C1         -0.0167    1.3776    0.0096 C.ar      1 <0>        -0.2056
      2 C2          1.1849    2.0698    0.0019 C.ar      1 <0>        -0.0625
      3 C3          2.3651    1.3426   -0.0133 C.ar      1 <0>        -0.1244
      4 C4          2.3054   -0.0383   -0.0202 C.ar      1 <0>         0.1954
      5 N1          1.1443   -0.6632   -0.0129 N.ar      1 <0>        -0.4885
      6 C5          0.0021   -0.0041    0.0020 C.ar      1 <0>         0.0846
      7 C6          3.6964    2.0488   -0.0227 C.3       1 <0>        -0.0704
      8 C7          4.1610    2.2805    1.4165 C.3       1 <0>        -1.0271
      9 O1          3.2001    3.0846    2.1036 O.3       1 <0>        -0.5025
     10 P1          4.3300    0.6765    2.2662 P.3       1 <0>         2.2707
     11 O2          4.7991    0.9105    3.7195 O.2       1 <0>        -1.0879
     12 O3          2.9651   -0.0475    2.2758 O.3       1 <0>        -1.0754
     13 O4          5.4126   -0.2294    1.4920 O.3       1 <0>        -0.8863
     14 P2          5.7714    3.1348    1.4051 P.3       1 <0>         2.2447
     15 O5          6.8103    2.2654    0.6622 O.2       1 <0>        -1.0856
     16 O6          5.6282    4.4942    0.6850 O.3       1 <0>        -1.1048
     17 O7          6.2603    3.3787    2.9196 O.3       1 <0>        -0.8740
     18 H1         -0.9552    1.9117    0.0259 H         1 <0>         0.1144
     19 H2          1.2009    3.1496    0.0072 H         1 <0>         0.1139
     20 H3          3.2203   -0.6121   -0.0320 H         1 <0>         0.1400
     21 H4         -0.9294   -0.5505    0.0083 H         1 <0>         0.1365
     22 H5          4.4293    1.4355   -0.5468 H         1 <0>         0.0822
     23 H6          3.5953    3.0079   -0.5308 H         1 <0>         0.0692
     24 H7          3.0587    3.9546    1.7058 H         1 <0>         0.3437
     25 H8          5.5539   -1.0994    1.8898 H         1 <0>         0.4025
     26 H9          7.1126    3.8300    2.9899 H         1 <0>         0.3972
@<TRIPOS>BOND
     1    1    6 ar
     2    1    2 ar
     3    1   18 1
     4    2    3 ar
     5    2   19 1
     6    3    4 ar
     7    3    7 1
     8    4    5 ar
     9    4   20 1
    10    5    6 ar
    11    6   21 1
    12    7    8 1
    13    7   22 1
    14    7   23 1
    15    8    9 1
    16    8   10 1
    17    8   14 1
    18    9   24 1
    19   10   11 2
    20   10   12 1
    21   10   13 1
    22   13   25 1
    23   14   15 2
    24   14   16 1
    25   14   17 1
    26   17   26 1
@<TRIPOS>MOLECULE
CHEMBL99553
   29    29     0     0     0
SMALL
USER_CHARGES

@<TRIPOS>ATOM
      1 C1         -0.0178    1.4608    0.0101 C.3       1 <0>         0.0361
      2 N1          0.0021   -0.0041    0.0020 N.ar      1 <0>        -0.3682
      3 C2          0.0052   -0.6399   -1.1534 C.ar      1 <0>         0.0880
      4 C3          0.0242   -2.0208   -1.2003 C.ar      1 <0>        -0.1430
      5 C4          0.0401   -2.7370   -0.0130 C.ar      1 <0>         0.0985
      6 C5          0.0362   -2.0340    1.1818 C.ar      1 <0>        -0.0579
      7 C6          0.0218   -0.6522    1.1501 C.ar      1 <0>         0.0859
      8 C7          0.0528   -2.7670    2.4984 C.3       1 <0>        -0.0865
      9 C8          1.5008   -2.9949    2.9369 C.3       1 <0>        -1.0192
     10 O1          2.1577   -1.7345    3.0850 O.3       1 <0>        -0.4970
     11 P1          2.3679   -3.9878    1.6777 P.3       1 <0>         2.2016
     12 O2          1.6477   -5.3696    1.5153 O.2       1 <0>        -1.1498
     13 O3          2.3506   -3.2259    0.3089 O.3       1 <0>        -1.0985
     14 O4          3.8506   -4.2213    2.1267 O.3       1 <0>        -1.1314
     15 P2          1.5210   -3.8815    4.5297 P.3       1 <0>         2.2582
     16 O5          2.9831   -4.1118    4.9725 O.2       1 <0>        -1.0740
     17 O6          0.7861   -3.0400    5.5969 O.3       1 <0>        -1.1212
     18 O7          0.7808   -5.3016    4.3628 O.3       1 <0>        -0.8802
     19 H1          1.0048    1.8381    0.0023 H         1 <0>         0.0975
     20 H2         -0.5450    1.8219   -0.8730 H         1 <0>         0.1001
     21 H3         -0.5280    1.8123    0.9069 H         1 <0>         0.1007
     22 H4         -0.0075   -0.0747   -2.0737 H         1 <0>         0.1774
     23 H5          0.0264   -2.5357   -2.1497 H         1 <0>         0.1615
     24 H6          0.0547   -3.8169   -0.0190 H         1 <0>         0.1690
     25 H7          0.0226   -0.0970    2.0765 H         1 <0>         0.1758
     26 H8         -0.4656   -2.1733    3.2513 H         1 <0>         0.0675
     27 H9         -0.4482   -3.7283    2.3855 H         1 <0>         0.0933
     28 H10         1.7493   -1.1528    3.7406 H         1 <0>         0.3219
     29 H11         0.7540   -5.8287    5.1731 H         1 <0>         0.3941
@<TRIPOS>BOND
     1    1    2 1
     2    1   19 1
     3    1   20 1
     4    1   21 1
     5    2    7 ar
     6    2    3 ar
     7    3    4 ar
     8    3   22 1
     9    4    5 ar
    10    4   23 1
    11    5    6 ar
    12    5   24 1
    13    6    7 ar
    14    6    8 1
    15    7   25 1
    16    8    9 1
    17    8   26 1
    18    8   27 1
    19    9   10 1
    20    9   11 1
    21    9   15 1
    22   10   28 1
    23   11   12 2
    24   11   13 1
    25   11   14 1
    26   15   16 2
    27   15   17 1
    28   15   18 1
    29   18   29 1
@<TRIPOS>MOLECULE
CHEMBL99553__1
   30    30     0     0     0
SMALL
USER_CHARGES

@<TRIPOS>ATOM
      1 C1         -0.0178    1.4608    0.0101 C.3       1 <0>         0.0242
      2 N1          0.0021   -0.0041    0.0020 N.ar      1 <0>        -0.3327
      3 C2          0.0052   -0.6399   -1.1534 C.ar      1 <0>         0.0889
      4 C3          0.0242   -2.0208   -1.2003 C.ar      1 <0>        -0.1382
      5 C4          0.0401   -2.7370   -0.0130 C.ar      1 <0>        -0.0042
      6 C5          0.0362   -2.0340    1.1818 C.ar      1 <0>        -0.0759
      7 C6          0.0218   -0.6522    1.1501 C.ar      1 <0>         0.2162
      8 C7          0.0528   -2.7670    2.4984 C.3       1 <0>        -0.0846
      9 C8          1.5008   -2.9949    2.9369 C.3       1 <0>        -1.0311
     10 O1          2.1805   -3.7732    1.9499 O.3       1 <0>        -0.5031
     11 P1          2.3388   -1.3870    3.1259 P.3       1 <0>         2.2765
     12 O2          3.8010   -1.6172    3.5687 O.2       1 <0>        -1.0702
     13 O3          2.3217   -0.6356    1.7760 O.3       1 <0>        -1.0834
     14 O4          1.5730   -0.5101    4.2379 O.3       1 <0>        -0.8853
     15 P2          1.5210   -3.8815    4.5297 P.3       1 <0>         2.2393
     16 O5          0.7861   -3.0400    5.5969 O.2       1 <0>        -1.0767
     17 O6          0.8107   -5.2442    4.3695 O.3       1 <0>        -1.0939
     18 O7          3.0447   -4.1215    4.9911 O.3       1 <0>        -0.8746
     19 H1          1.0048    1.8381    0.0023 H         1 <0>         0.1186
     20 H2         -0.5450    1.8219   -0.8730 H         1 <0>         0.1078
     21 H3         -0.5280    1.8123    0.9069 H         1 <0>         0.1114
     22 H4         -0.0075   -0.0747   -2.0737 H         1 <0>         0.1897
     23 H5          0.0264   -2.5357   -2.1497 H         1 <0>         0.1684
     24 H6          0.0547   -3.8169   -0.0190 H         1 <0>         0.1572
     25 H7          0.0226   -0.0970    2.0765 H         1 <0>         0.1886
     26 H8         -0.4656   -2.1733    3.2513 H         1 <0>         0.1018
     27 H9         -0.4482   -3.7283    2.3855 H         1 <0>         0.0972
     28 H10         1.7883   -4.6438    1.7968 H         1 <0>         0.3538
     29 H11         1.9652    0.3604    4.3910 H         1 <0>         0.4096
     30 H12         3.1317   -4.5892    5.8329 H         1 <0>         0.4049
@<TRIPOS>BOND
     1    1    2 1
     2    1   19 1
     3    1   20 1
     4    1   21 1
     5    2    7 ar
     6    2    3 ar
     7    3    4 ar
     8    3   22 1
     9    4    5 ar
    10    4   23 1
    11    5    6 ar
    12    5   24 1
    13    6    7 ar
    14    6    8 1
    15    7   25 1
    16    8    9 1
    17    8   26 1
    18    8   27 1
    19    9   10 1
    20    9   11 1
    21    9   15 1
    22   10   28 1
    23   11   12 2
    24   11   13 1
    25   11   14 1
    26   14   29 1
    27   15   16 2
    28   15   17 1
    29   15   18 1
    30   18   30 1
@<TRIPOS>MOLECULE
CHEMBL412889
   37    37     0     0     0
SMALL
USER_CHARGES

@<TRIPOS>ATOM
      1 C1          0.1894    0.6811    0.9478 C.3       1 <0>        -0.1216
      2 C2          1.4920    1.4283    0.6542 C.3       1 <0>        -0.1277
      3 C3          1.7956    1.3555   -0.8437 C.3       1 <0>        -0.1079
      4 C4          2.3281   -0.0367   -1.1886 C.3       1 <0>        -0.1303
      5 C5          3.3504   -0.4681   -0.1354 C.3       1 <0>        -0.0317
      6 C6          2.7935   -1.6484    0.6631 C.3       1 <0>        -0.1358
      7 C7          1.7449   -1.1420    1.6557 C.3       1 <0>        -0.1241
      8 C8          0.4471   -0.8265    0.9097 C.3       1 <0>        -0.1271
      9 N1          4.5973   -0.8710   -0.7994 N.4       1 <0>        -0.4288
     10 C9          5.2040    0.2969   -1.4520 C.3       1 <0>        -1.1463
     11 P1          5.7602    1.4815   -0.1829 P.3       1 <0>         2.1340
     12 O1          4.5147    2.0733    0.5608 O.2       1 <0>        -1.1292
     13 O2          6.6837    0.7472    0.8479 O.3       1 <0>        -1.1271
     14 O3          6.5603    2.6421   -0.8666 O.3       1 <0>        -1.1298
     15 P2          6.6319   -0.2386   -2.4508 P.3       1 <0>         2.2711
     16 O4          7.6754   -0.9169   -1.5353 O.2       1 <0>        -1.0723
     17 O5          6.1605   -1.2426   -3.5264 O.3       1 <0>        -1.1118
     18 O6          7.2969    1.0414   -3.1661 O.3       1 <0>        -0.8698
     19 H1         -0.1763    0.9624    1.9353 H         1 <0>         0.0554
     20 H2         -0.5561    0.9414    0.1964 H         1 <0>         0.0529
     21 H3          1.3879    2.4713    0.9535 H         1 <0>         0.0641
     22 H4          2.3078    0.9697    1.2130 H         1 <0>         0.1028
     23 H5          0.8833    1.5459   -1.4090 H         1 <0>         0.0495
     24 H6          2.5448    2.1047   -1.0995 H         1 <0>         0.0851
     25 H7          1.5021   -0.7477   -1.2055 H         1 <0>         0.0788
     26 H8          2.8050   -0.0108   -2.1684 H         1 <0>         0.0647
     27 H9          3.5506    0.3646    0.5390 H         1 <0>         0.2046
     28 H10         2.3332   -2.3635   -0.0186 H         1 <0>         0.0695
     29 H11         3.6038   -2.1341    1.2068 H         1 <0>         0.0782
     30 H12         1.5551   -1.9090    2.4066 H         1 <0>         0.0654
     31 H13         2.1124   -0.2391    2.1434 H         1 <0>         0.0922
     32 H14        -0.3822   -1.3489    1.3867 H         1 <0>         0.0534
     33 H15         0.5347   -1.1540   -0.1262 H         1 <0>         0.0682
     34 H16         5.2377   -1.2441   -0.1147 H         1 <0>         0.4244
     35 H17         4.4678    0.7755   -2.0979 H         1 <0>         0.1227
     36 H18         8.0642    0.8305   -3.7154 H         1 <0>         0.4003
     37 H19         4.3966   -1.5768   -1.4920 H         1 <0>         0.3837
@<TRIPOS>BOND
     1    1    8 1
     2    1    2 1
     3    1   19 1
     4    1   20 1
     5    2    3 1
     6    2   21 1
     7    2   22 1
     8    3    4 1
     9    3   23 1
    10    3   24 1
    11    4    5 1
    12    4   25 1
    13    4   26 1
    14    5    6 1
    15    5    9 1
    16    5   27 1
    17    6    7 1
    18    6   28 1
    19    6   29 1
    20    7    8 1
    21    7   30 1
    22    7   31 1
    23    8   32 1
    24    8   33 1
    25    9   10 1
    26    9   34 1
    27    9   37 1
    28   10   11 1
    29   10   15 1
    30   10   35 1
    31   11   12 2
    32   11   13 1
    33   11   14 1
    34   15   16 2
    35   15   17 1
    36   15   18 1
    37   18   36 1
@<TRIPOS>MOLECULE
CHEMBL412889__1
   36    36     0     0     0
SMALL
USER_CHARGES

@<TRIPOS>ATOM
      1 C1          0.1894    0.6811    0.9477 C.3       1 <0>        -0.1186
      2 C2          1.4920    1.4284    0.6542 C.3       1 <0>        -0.1268
      3 C3          1.7956    1.3555   -0.8437 C.3       1 <0>        -0.1060
      4 C4          2.3281   -0.0367   -1.1886 C.3       1 <0>        -0.1278
      5 C5          3.3504   -0.4680   -0.1354 C.3       1 <0>        -0.0362
      6 C6          2.7934   -1.6484    0.6631 C.3       1 <0>        -0.1365
      7 C7          1.7449   -1.1420    1.6557 C.3       1 <0>        -0.1220
      8 C8          0.4470   -0.8265    0.9097 C.3       1 <0>        -0.1260
      9 N1          4.5973   -0.8709   -0.7994 N.4       1 <0>        -0.4279
     10 C9          5.2040    0.2969   -1.4520 C.3       1 <0>        -1.1299
     11 P1          5.7602    1.4815   -0.1829 P.3       1 <0>         2.1876
     12 O1          4.5147    2.0733    0.5608 O.2       1 <0>        -1.1622
     13 O2          6.6837    0.7472    0.8479 O.3       1 <0>        -1.1559
     14 O3          6.5603    2.6421   -0.8666 O.3       1 <0>        -1.1393
     15 P2          6.6319   -0.2386   -2.4508 P.3       1 <0>         2.1800
     16 O4          7.6900   -0.9264   -1.5224 O.2       1 <0>        -1.1507
     17 O5          6.1539   -1.2567   -3.5415 O.3       1 <0>        -1.1923
     18 O6          7.2790    1.0069   -3.1468 O.3       1 <0>        -1.1379
     19 H1         -0.1764    0.9625    1.9352 H         1 <0>         0.0509
     20 H2         -0.5561    0.9414    0.1963 H         1 <0>         0.0496
     21 H3          1.3879    2.4713    0.9534 H         1 <0>         0.0605
     22 H4          2.3078    0.9698    1.2130 H         1 <0>         0.1054
     23 H5          0.8834    1.5459   -1.4091 H         1 <0>         0.0429
     24 H6          2.5448    2.1048   -1.0995 H         1 <0>         0.0882
     25 H7          1.5021   -0.7477   -1.2056 H         1 <0>         0.0690
     26 H8          2.8050   -0.0107   -2.1684 H         1 <0>         0.0687
     27 H9          3.5506    0.3646    0.5390 H         1 <0>         0.2003
     28 H10         2.3331   -2.3635   -0.0186 H         1 <0>         0.0641
     29 H11         3.6038   -2.1341    1.2067 H         1 <0>         0.0747
     30 H12         1.5551   -1.9089    2.4066 H         1 <0>         0.0591
     31 H13         2.1123   -0.2391    2.1433 H         1 <0>         0.0911
     32 H14        -0.3823   -1.3488    1.3867 H         1 <0>         0.0481
     33 H15         0.5347   -1.1540   -0.1262 H         1 <0>         0.0695
     34 H16         5.2376   -1.2440   -0.1147 H         1 <0>         0.4165
     35 H17         4.4679    0.7755   -2.0979 H         1 <0>         0.0957
     36 H18         4.3966   -1.5768   -1.4920 H         1 <0>         0.3741
@<TRIPOS>BOND
     1    1    8 1
     2    1    2 1
     3    1   19 1
     4    1   20 1
     5    2    3 1
     6    2   21 1
     7    2   22 1
     8    3    4 1
     9    3   23 1
    10    3   24 1
    11    4    5 1
    12    4   25 1
    13    4   26 1
    14    5    6 1
    15    5    9 1
    16    5   27 1
    17    6    7 1
    18    6   28 1
    19    6   29 1
    20    7    8 1
    21    7   30 1
    22    7   31 1
    23    8   32 1
    24    8   33 1
    25    9   10 1
    26    9   34 1
    27    9   36 1
    28   10   11 1
    29   10   15 1
    30   10   35 1
    31   11   12 2
    32   11   13 1
    33   11   14 1
    34   15   16 2
    35   15   17 1
    36   15   18 1
@<TRIPOS>MOLECULE
CHEMBL55352
   32    31     0     0     0
SMALL
USER_CHARGES

@<TRIPOS>ATOM
      1 C1         -1.1007   -0.7284    2.9806 C.3       1 <0>        -0.1214
      2 C2         -0.6379   -1.8181    2.0114 C.3       1 <0>        -0.1595
      3 C3         -1.7956   -2.2056    1.0892 C.3       1 <0>        -0.0533
      4 N1         -1.3231   -3.1736    0.0904 N.4       1 <0>        -0.3008
      5 C4         -2.4710   -3.8999   -0.4689 C.3       1 <0>        -0.0334
      6 C5         -1.9706   -4.9991   -1.4082 C.3       1 <0>        -0.1478
      7 C6         -3.1658   -5.6862   -2.0716 C.3       1 <0>        -0.1367
      8 C7         -0.6213   -2.4628   -0.9867 C.3       1 <0>        -1.1455
      9 P1         -1.4949   -0.9063   -1.3574 P.3       1 <0>         2.2096
     10 O1         -3.0196   -1.2000   -1.5657 O.2       1 <0>        -1.1862
     11 O2         -1.3136    0.0915   -0.1632 O.3       1 <0>        -1.0973
     12 O3         -0.9021   -0.2727   -2.6619 O.3       1 <0>        -1.1670
     13 P2          1.0840   -2.0920   -0.4597 P.3       1 <0>         2.1872
     14 O4          1.1814   -0.5899   -0.0255 O.2       1 <0>        -1.0999
     15 O5          1.4684   -3.0111    0.7494 O.3       1 <0>        -1.1797
     16 O6          2.0676   -2.3563   -1.6501 O.3       1 <0>        -1.1780
     17 H1         -0.2759   -0.4523    3.6376 H         1 <0>         0.0402
     18 H2         -1.4242    0.1463    2.4163 H         1 <0>         0.0866
     19 H3         -1.9317   -1.1029    3.5784 H         1 <0>         0.0104
     20 H4          0.1931   -1.4436    1.4136 H         1 <0>         0.1644
     21 H5         -0.3144   -2.6927    2.5756 H         1 <0>         0.0371
     22 H6         -2.5957   -2.6531    1.6789 H         1 <0>         0.0570
     23 H7         -2.1709   -1.3158    0.5836 H         1 <0>         0.1842
     24 H8         -3.0469   -4.3482    0.3407 H         1 <0>         0.0792
     25 H9         -3.1034   -3.2074   -1.0244 H         1 <0>         0.1620
     26 H10        -1.3328   -4.5592   -2.1750 H         1 <0>         0.0844
     27 H11        -1.4003   -5.7324   -0.8381 H         1 <0>         0.0611
     28 H12        -3.8036   -6.1261   -1.3049 H         1 <0>         0.0491
     29 H13        -3.7361   -4.9529   -2.6418 H         1 <0>         0.0661
     30 H14        -2.8093   -6.4693   -2.7408 H         1 <0>         0.0530
     31 H15        -0.5979   -3.0878   -1.8794 H         1 <0>         0.0968
     32 H16        -0.6922   -3.8280    0.5284 H         1 <0>         0.3781
@<TRIPOS>BOND
     1    1    2 1
     2    1   17 1
     3    1   18 1
     4    1   19 1
     5    2    3 1
     6    2   20 1
     7    2   21 1
     8    3    4 1
     9    3   22 1
    10    3   23 1
    11    4    5 1
    12    4    8 1
    13    4   32 1
    14    5    6 1
    15    5   24 1
    16    5   25 1
    17    6    7 1
    18    6   26 1
    19    6   27 1
    20    7   28 1
    21    7   29 1
    22    7   30 1
    23    8    9 1
    24    8   13 1
    25    8   31 1
    26    9   10 2
    27    9   11 1
    28    9   12 1
    29   13   14 2
    30   13   15 1
    31   13   16 1
@<TRIPOS>MOLECULE
CHEMBL55352__1
   33    32     0     0     0
SMALL
USER_CHARGES

@<TRIPOS>ATOM
      1 C1          0.0895    1.3835   -1.9175 C.3       1 <0>        -0.1370
      2 C2          0.1433   -0.1305   -2.1318 C.3       1 <0>        -0.1310
      3 C3          0.7140   -0.8026   -0.8814 C.3       1 <0>        -0.0428
      4 N1          0.6674   -2.2617   -1.0453 N.4       1 <0>        -0.3046
      5 C4         -0.7317   -2.6993   -1.1405 C.3       1 <0>        -0.0488
      6 C5         -1.4602   -2.3657    0.1629 C.3       1 <0>        -0.1435
      7 C6         -2.8776   -2.9400    0.1164 C.3       1 <0>        -0.1427
      8 C7          1.3832   -2.6400   -2.2711 C.3       1 <0>        -1.1452
      9 P1          1.3406   -4.4521   -2.4650 P.3       1 <0>         2.1336
     10 O1          1.8535   -5.1304   -1.1492 O.2       1 <0>        -1.1277
     11 O2         -0.1294   -4.9123   -2.7509 O.3       1 <0>        -1.1410
     12 O3          2.2610   -4.8711   -3.6615 O.3       1 <0>        -1.1245
     13 P2          3.1149   -2.0812   -2.1604 P.3       1 <0>         2.2771
     14 O4          3.1589   -0.5369   -2.1623 O.2       1 <0>        -1.0992
     15 O5          3.7451   -2.6128   -0.8538 O.3       1 <0>        -1.0812
     16 O6          3.9418   -2.6432   -3.4224 O.3       1 <0>        -0.8655
     17 H1         -0.5477    1.6069   -1.0618 H         1 <0>         0.0460
     18 H2          1.0951    1.7598   -1.7296 H         1 <0>         0.0739
     19 H3         -0.3171    1.8623   -2.8082 H         1 <0>         0.0539
     20 H4         -0.8623   -0.5068   -2.3196 H         1 <0>         0.0582
     21 H5          0.7805   -0.3539   -2.9874 H         1 <0>         0.0876
     22 H6          1.7472   -0.4860   -0.7382 H         1 <0>         0.1579
     23 H7          0.1222   -0.5155   -0.0123 H         1 <0>         0.0970
     24 H8         -1.2175   -2.1854   -1.9700 H         1 <0>         0.1011
     25 H9         -0.7651   -3.7754   -1.3102 H         1 <0>         0.1785
     26 H10        -0.9192   -2.8009    1.0032 H         1 <0>         0.0780
     27 H11        -1.5104   -1.2836    0.2845 H         1 <0>         0.0651
     28 H12        -3.4186   -2.5047   -0.7238 H         1 <0>         0.0551
     29 H13        -2.8274   -4.0220   -0.0051 H         1 <0>         0.0713
     30 H14        -3.3966   -2.7023    1.0450 H         1 <0>         0.0569
     31 H15         0.9044   -2.1712   -3.1308 H         1 <0>         0.1222
     32 H16         4.8735   -2.3842   -3.4290 H         1 <0>         0.3984
     33 H17         1.1046   -2.7036   -0.2505 H         1 <0>         0.4230
@<TRIPOS>BOND
     1    1    2 1
     2    1   17 1
     3    1   18 1
     4    1   19 1
     5    2    3 1
     6    2   20 1
     7    2   21 1
     8    3    4 1
     9    3   22 1
    10    3   23 1
    11    4    5 1
    12    4    8 1
    13    4   33 1
    14    5    6 1
    15    5   24 1
    16    5   25 1
    17    6    7 1
    18    6   26 1
    19    6   27 1
    20    7   28 1
    21    7   29 1
    22    7   30 1
    23    8    9 1
    24    8   13 1
    25    8   31 1
    26    9   10 2
    27    9   11 1
    28    9   12 1
    29   13   14 2
    30   13   15 1
    31   13   16 1
    32   16   32 1
@<TRIPOS>MOLECULE
CHEMBL316844
   42    42     0     0     0
SMALL
USER_CHARGES

@<TRIPOS>ATOM
      1 C1         -0.0167    1.3784    0.0096 C.ar      1 <0>        -0.1597
      2 C2          1.1698    2.0883    0.0021 C.ar      1 <0>        -0.0825
      3 C3          2.3773    1.4175   -0.0134 C.ar      1 <0>        -0.1528
      4 C4          2.3989    0.0304   -0.0210 C.ar      1 <0>         0.1304
      5 C5          1.2070   -0.6796   -0.0130 C.ar      1 <0>        -0.2076
      6 C6          0.0021   -0.0041    0.0020 C.ar      1 <0>        -0.0792
      7 O1          3.5855   -0.6319   -0.0368 O.3       1 <0>        -0.3141
      8 C7          3.5315   -2.0598   -0.0438 C.3       1 <0>         0.0628
      9 C8          4.9536   -2.6239   -0.0615 C.3       1 <0>        -0.1473
     10 C9          4.8957   -4.1528   -0.0690 C.3       1 <0>        -0.0025
     11 N1          6.2611   -4.6944   -0.0860 N.4       1 <0>        -0.5027
     12 C10         6.2056   -6.1624   -0.0932 C.3       1 <0>        -0.0372
     13 C11         7.6277   -6.7264   -0.1109 C.3       1 <0>        -0.1165
     14 C12         7.5698   -8.2553   -0.1184 C.3       1 <0>        -1.0255
     15 O2          6.8907   -8.7121    1.0530 O.3       1 <0>        -0.5144
     16 P1          6.6728   -8.8222   -1.6008 P.3       1 <0>         2.1976
     17 O3          5.1808   -8.3514   -1.5201 O.2       1 <0>        -1.1670
     18 O4          7.3433   -8.2161   -2.8805 O.3       1 <0>        -1.1487
     19 O5          6.7236  -10.3862   -1.6756 O.3       1 <0>        -1.1558
     20 P2          9.2643   -8.9275   -0.1394 P.3       1 <0>         2.2762
     21 O6          9.9985   -8.4336   -1.4059 O.2       1 <0>        -1.0894
     22 O7         10.0245   -8.4470    1.1169 O.3       1 <0>        -1.1281
     23 O8          9.2034  -10.5363   -0.1473 O.3       1 <0>        -0.8701
     24 H1         -0.9596    1.9047    0.0260 H         1 <0>         0.1231
     25 H2          1.1525    3.1682    0.0080 H         1 <0>         0.1284
     26 H3          3.3038    1.9724   -0.0200 H         1 <0>         0.1303
     27 H4          1.2211   -1.7595   -0.0193 H         1 <0>         0.1307
     28 H5         -0.9260   -0.5563    0.0082 H         1 <0>         0.1261
     29 H6          3.0134   -2.4083    0.8497 H         1 <0>         0.0723
     30 H7          2.9951   -2.3988   -0.9302 H         1 <0>         0.0770
     31 H8          5.4716   -2.2755   -0.9550 H         1 <0>         0.0978
     32 H9          5.4899   -2.2850    0.8248 H         1 <0>         0.0921
     33 H10         4.3777   -4.5012    0.8245 H         1 <0>         0.1260
     34 H11         4.3594   -4.4918   -0.9554 H         1 <0>         0.1387
     35 H12         6.7406   -4.3719   -0.9131 H         1 <0>         0.4241
     36 H13         5.6876   -6.5108    0.8003 H         1 <0>         0.1172
     37 H14         5.6693   -6.5013   -0.9795 H         1 <0>         0.1854
     38 H15         8.1457   -6.3780   -1.0044 H         1 <0>         0.0957
     39 H16         8.1640   -6.3875    0.7755 H         1 <0>         0.0527
     40 H17         7.3133   -8.4466    1.8813 H         1 <0>         0.3204
     41 H18        10.0713  -10.9627   -0.1585 H         1 <0>         0.3892
     42 H19         6.7576   -4.3807    0.7345 H         1 <0>         0.4070
@<TRIPOS>BOND
     1    1    6 ar
     2    1    2 ar
     3    1   24 1
     4    2    3 ar
     5    2   25 1
     6    3    4 ar
     7    3   26 1
     8    4    5 ar
     9    4    7 1
    10    5    6 ar
    11    5   27 1
    12    6   28 1
    13    7    8 1
    14    8    9 1
    15    8   29 1
    16    8   30 1
    17    9   10 1
    18    9   31 1
    19    9   32 1
    20   10   11 1
    21   10   33 1
    22   10   34 1
    23   11   12 1
    24   11   35 1
    25   11   42 1
    26   12   13 1
    27   12   36 1
    28   12   37 1
    29   13   14 1
    30   13   38 1
    31   13   39 1
    32   14   15 1
    33   14   16 1
    34   14   20 1
    35   15   40 1
    36   16   17 2
    37   16   18 1
    38   16   19 1
    39   20   21 2
    40   20   22 1
    41   20   23 1
    42   23   41 1
@<TRIPOS>MOLECULE
CHEMBL316844__1
   43    43     0     0     0
SMALL
USER_CHARGES

@<TRIPOS>ATOM
      1 C1         -0.0167    1.3784    0.0096 C.ar      1 <0>        -0.1555
      2 C2          1.1698    2.0883    0.0021 C.ar      1 <0>        -0.0806
      3 C3          2.3773    1.4175   -0.0134 C.ar      1 <0>        -0.1506
      4 C4          2.3989    0.0304   -0.0210 C.ar      1 <0>         0.1260
      5 C5          1.2070   -0.6796   -0.0130 C.ar      1 <0>        -0.2078
      6 C6          0.0021   -0.0041    0.0020 C.ar      1 <0>        -0.0794
      7 O1          3.5855   -0.6319   -0.0368 O.3       1 <0>        -0.3144
      8 C7          3.5315   -2.0598   -0.0438 C.3       1 <0>         0.0630
      9 C8          4.9536   -2.6239   -0.0615 C.3       1 <0>        -0.1489
     10 C9          4.8957   -4.1528   -0.0690 C.3       1 <0>        -0.0031
     11 N1          6.2611   -4.6944   -0.0860 N.4       1 <0>        -0.5041
     12 C10         6.2056   -6.1624   -0.0932 C.3       1 <0>        -0.0469
     13 C11         7.6277   -6.7264   -0.1109 C.3       1 <0>        -0.1374
     14 C12         7.5698   -8.2553   -0.1184 C.3       1 <0>        -1.0298
     15 O2          6.8907   -8.7121    1.0530 O.3       1 <0>        -0.5032
     16 P1          6.6728   -8.8222   -1.6008 P.3       1 <0>         2.2720
     17 O3          6.6144  -10.3661   -1.6084 O.2       1 <0>        -1.0715
     18 O4          5.2368   -8.2526   -1.5829 O.3       1 <0>        -1.0874
     19 O5          7.4380   -8.3076   -2.9205 O.3       1 <0>        -0.8861
     20 P2          9.2643   -8.9275   -0.1394 P.3       1 <0>         2.2432
     21 O6          9.9985   -8.4336   -1.4059 O.2       1 <0>        -1.0781
     22 O7         10.0245   -8.4470    1.1169 O.3       1 <0>        -1.0972
     23 O8          9.2034  -10.5363   -0.1473 O.3       1 <0>        -0.8740
     24 H1         -0.9596    1.9047    0.0260 H         1 <0>         0.1254
     25 H2          1.1525    3.1682    0.0080 H         1 <0>         0.1307
     26 H3          3.3038    1.9724   -0.0200 H         1 <0>         0.1310
     27 H4          1.2211   -1.7595   -0.0193 H         1 <0>         0.1287
     28 H5         -0.9260   -0.5563    0.0082 H         1 <0>         0.1271
     29 H6          3.0134   -2.4083    0.8497 H         1 <0>         0.0728
     30 H7          2.9951   -2.3988   -0.9302 H         1 <0>         0.0755
     31 H8          5.4716   -2.2755   -0.9550 H         1 <0>         0.0982
     32 H9          5.4899   -2.2850    0.8248 H         1 <0>         0.0952
     33 H10         4.3777   -4.5012    0.8245 H         1 <0>         0.1307
     34 H11         4.3594   -4.4918   -0.9554 H         1 <0>         0.1391
     35 H12         6.7406   -4.3719   -0.9131 H         1 <0>         0.4240
     36 H13         5.6876   -6.5108    0.8003 H         1 <0>         0.1293
     37 H14         5.6693   -6.5013   -0.9795 H         1 <0>         0.1836
     38 H15         8.1457   -6.3780   -1.0044 H         1 <0>         0.0954
     39 H16         8.1640   -6.3875    0.7755 H         1 <0>         0.0807
     40 H17         7.3133   -8.4466    1.8813 H         1 <0>         0.3530
     41 H18         7.0154   -8.5730   -3.7488 H         1 <0>         0.4105
     42 H19        10.0713  -10.9627   -0.1585 H         1 <0>         0.4052
     43 H20         6.7576   -4.3807    0.7345 H         1 <0>         0.4160
@<TRIPOS>BOND
     1    1    6 ar
     2    1    2 ar
     3    1   24 1
     4    2    3 ar
     5    2   25 1
     6    3    4 ar
     7    3   26 1
     8    4    5 ar
     9    4    7 1
    10    5    6 ar
    11    5   27 1
    12    6   28 1
    13    7    8 1
    14    8    9 1
    15    8   29 1
    16    8   30 1
    17    9   10 1
    18    9   31 1
    19    9   32 1
    20   10   11 1
    21   10   33 1
    22   10   34 1
    23   11   12 1
    24   11   35 1
    25   11   43 1
    26   12   13 1
    27   12   36 1
    28   12   37 1
    29   13   14 1
    30   13   38 1
    31   13   39 1
    32   14   15 1
    33   14   16 1
    34   14   20 1
    35   15   40 1
    36   16   17 2
    37   16   18 1
    38   16   19 1
    39   19   41 1
    40   20   21 2
    41   20   22 1
    42   20   23 1
    43   23   42 1
@<TRIPOS>MOLECULE
CHEMBL58830
   28    28     0     0     0
SMALL
USER_CHARGES

@<TRIPOS>ATOM
      1 C1          2.8495    1.5364   -1.0411 C.3       1 <0>        -0.1224
      2 C2          2.8774    0.7852    0.3131 C.3       1 <0>        -0.1178
      3 C3          2.2434   -0.5827   -0.0417 C.3       1 <0>        -0.1307
      4 C4          1.1248   -0.2325   -1.0446 C.3       1 <0>        -0.0159
      5 C5          1.5101    1.1148   -1.6801 C.3       1 <0>        -0.1415
      6 N1          1.0348   -1.2701   -2.0806 N.4       1 <0>        -0.4259
      7 C6          0.6378   -2.5435   -1.4651 C.3       1 <0>        -1.1469
      8 P1         -1.0644   -2.4055   -0.8273 P.3       1 <0>         2.1344
      9 O1         -1.0956   -1.3857    0.3616 O.2       1 <0>        -1.1412
     10 O2         -2.0113   -1.9043   -1.9703 O.3       1 <0>        -1.1237
     11 O3         -1.5492   -3.8081   -0.3250 O.3       1 <0>        -1.1273
     12 P2          0.7137   -3.8710   -2.7122 P.3       1 <0>         2.2713
     13 O4         -0.2470   -3.5398   -3.8760 O.2       1 <0>        -1.0715
     14 O5          2.1563   -3.9879   -3.2528 O.3       1 <0>        -1.1113
     15 O6          0.2786   -5.2666   -2.0376 O.3       1 <0>        -0.8695
     16 H1          2.8728    2.6142   -0.8801 H         1 <0>         0.0722
     17 H2          3.6856    1.2251   -1.6673 H         1 <0>         0.0670
     18 H3          3.9018    0.6572    0.6628 H         1 <0>         0.0701
     19 H4          2.2766    1.3081    1.0573 H         1 <0>         0.0778
     20 H5          2.9816   -1.2362   -0.5064 H         1 <0>         0.0681
     21 H6          1.8244   -1.0514    0.8488 H         1 <0>         0.0945
     22 H7          0.1716   -0.1407   -0.5238 H         1 <0>         0.1886
     23 H8          0.7440    1.8606   -1.4677 H         1 <0>         0.0941
     24 H9          1.6304    0.9988   -2.7572 H         1 <0>         0.0740
     25 H10         0.3475   -1.0002   -2.7682 H         1 <0>         0.4257
     26 H11         1.3156   -2.7771   -0.6440 H         1 <0>         0.1217
     27 H12         0.2958   -6.0191   -2.6447 H         1 <0>         0.4006
     28 H13         1.9331   -1.3781   -2.5273 H         1 <0>         0.3856
@<TRIPOS>BOND
     1    1    5 1
     2    1    2 1
     3    1   16 1
     4    1   17 1
     5    2    3 1
     6    2   18 1
     7    2   19 1
     8    3    4 1
     9    3   20 1
    10    3   21 1
    11    4    5 1
    12    4    6 1
    13    4   22 1
    14    5   23 1
    15    5   24 1
    16    6    7 1
    17    6   25 1
    18    6   28 1
    19    7    8 1
    20    7   12 1
    21    7   26 1
    22    8    9 2
    23    8   10 1
    24    8   11 1
    25   12   13 2
    26   12   14 1
    27   12   15 1
    28   15   27 1
@<TRIPOS>MOLECULE
CHEMBL58830__1
   27    27     0     0     0
SMALL
USER_CHARGES

@<TRIPOS>ATOM
      1 C1         -0.7276    0.7903    0.0779 C.3       1 <0>        -0.1201
      2 C2          0.6762    1.4033    0.3075 C.3       1 <0>        -0.1165
      3 C3          1.5597    0.6188   -0.6941 C.3       1 <0>        -0.1279
      4 C4          1.0022   -0.8188   -0.6448 C.3       1 <0>        -0.0207
      5 C5         -0.4520   -0.7097   -0.1540 C.3       1 <0>        -0.1420
      6 N1          1.0372   -1.4183   -1.9854 N.4       1 <0>        -0.4249
      7 C6          2.4319   -1.5437   -2.4295 C.3       1 <0>        -1.1311
      8 P1          3.2974   -2.7565   -1.3792 P.3       1 <0>         2.1872
      9 O1          3.4144   -2.1952    0.0788 O.2       1 <0>        -1.1743
     10 O2          2.4906   -4.0993   -1.3586 O.3       1 <0>        -1.1523
     11 O3          4.7308   -3.0172   -1.9550 O.3       1 <0>        -1.1366
     12 P2          2.4693   -2.1052   -4.1635 P.3       1 <0>         2.1789
     13 O4          1.7580   -3.4964   -4.2773 O.2       1 <0>        -1.1495
     14 O5          1.7255   -1.0629   -5.0661 O.3       1 <0>        -1.1915
     15 O6          3.9567   -2.2389   -4.6371 O.3       1 <0>        -1.1370
     16 H1         -1.3541    0.9314    0.9586 H         1 <0>         0.0656
     17 H2         -1.1977    1.2321   -0.8006 H         1 <0>         0.0645
     18 H3          0.6763    2.4674    0.0714 H         1 <0>         0.0648
     19 H4          1.0091    1.2336    1.3314 H         1 <0>         0.0734
     20 H5          1.4589    1.0329   -1.6973 H         1 <0>         0.0682
     21 H6          2.6024    0.6347   -0.3767 H         1 <0>         0.0920
     22 H7          1.5865   -1.4222    0.0499 H         1 <0>         0.1833
     23 H8         -0.5735   -1.2603    0.7789 H         1 <0>         0.0870
     24 H9         -1.1319   -1.1016   -0.9105 H         1 <0>         0.0707
     25 H10         0.6100   -2.3319   -1.9566 H         1 <0>         0.4179
     26 H11         2.9268   -0.5757   -2.3503 H         1 <0>         0.0948
     27 H12         0.5305   -0.8303   -2.6301 H         1 <0>         0.3761
@<TRIPOS>BOND
     1    1    5 1
     2    1    2 1
     3    1   16 1
     4    1   17 1
     5    2    3 1
     6    2   18 1
     7    2   19 1
     8    3    4 1
     9    3   20 1
    10    3   21 1
    11    4    5 1
    12    4    6 1
    13    4   22 1
    14    5   23 1
    15    5   24 1
    16    6    7 1
    17    6   25 1
    18    6   27 1
    19    7    8 1
    20    7   12 1
    21    7   26 1
    22    8    9 2
    23    8   10 1
    24    8   11 1
    25   12   13 2
    26   12   14 1
    27   12   15 1
@<TRIPOS>MOLECULE
CHEMBL870
   25    24     0     0     0
SMALL
USER_CHARGES

@<TRIPOS>ATOM
      1 C1         -0.0187    1.5258    0.0104 C.3       1 <0>        -0.1759
      2 C2          0.0021   -0.0041    0.0020 C.3       1 <0>        -0.0833
      3 C3         -1.4333   -0.5336    0.0129 C.3       1 <0>        -1.0339
      4 O1         -2.1022   -0.0728    1.1886 O.3       1 <0>        -0.5167
      5 P1         -2.3150    0.0702   -1.4640 P.3       1 <0>         2.2152
      6 O2         -2.4480    1.6296   -1.3916 O.2       1 <0>        -1.1788
      7 O3         -1.5126   -0.3263   -2.7498 O.3       1 <0>        -1.1577
      8 O4         -3.7422   -0.5735   -1.5198 O.3       1 <0>        -1.1666
      9 P2         -1.4086   -2.3565    0.0029 P.3       1 <0>         2.2738
     10 O5         -0.6854   -2.8547   -1.2683 O.2       1 <0>        -1.0933
     11 O6         -0.6613   -2.8683    1.2545 O.3       1 <0>        -1.1320
     12 O7         -2.9190   -2.9137    0.0143 O.3       1 <0>        -0.8704
     13 C4          1.4167    2.0553   -0.0004 C.3       1 <0>        -0.0092
     14 N1          1.3968    3.5242    0.0076 N.4       1 <0>        -0.6314
     15 H1         -0.5459    1.8868   -0.8726 H         1 <0>         0.1464
     16 H2         -0.5289    1.8773    0.9072 H         1 <0>         0.0701
     17 H3          0.5123   -0.3556   -0.8948 H         1 <0>         0.0809
     18 H4          0.5293   -0.3651    0.8851 H         1 <0>         0.0367
     19 H5         -1.6869   -0.3571    2.0143 H         1 <0>         0.3156
     20 H6         -2.9823   -3.8786    0.0097 H         1 <0>         0.3862
     21 H7          1.9439    1.6943    0.8826 H         1 <0>         0.1140
     22 H8          1.9269    1.7038   -0.8972 H         1 <0>         0.1279
     23 H9          0.9088    3.8584   -0.8098 H         1 <0>         0.4384
     24 H10         0.9245    3.8496    0.8378 H         1 <0>         0.4270
     25 H11         2.3434    3.8734    0.0005 H         1 <0>         0.4169
@<TRIPOS>BOND
     1    1    2 1
     2    1   13 1
     3    1   15 1
     4    1   16 1
     5    2    3 1
     6    2   17 1
     7    2   18 1
     8    3    4 1
     9    3    5 1
    10    3    9 1
    11    4   19 1
    12    5    6 2
    13    5    7 1
    14    5    8 1
    15    9   10 2
    16    9   11 1
    17    9   12 1
    18   12   20 1
    19   13   14 1
    20   13   21 1
    21   13   22 1
    22   14   23 1
    23   14   24 1
    24   14   25 1
@<TRIPOS>MOLECULE
CHEMBL870__1
   26    25     0     0     0
SMALL
USER_CHARGES

@<TRIPOS>ATOM
      1 C1         -0.0187    1.5258    0.0104 C.3       1 <0>        -0.1880
      2 C2          0.0021   -0.0041    0.0020 C.3       1 <0>        -0.1025
      3 C3         -1.4333   -0.5336    0.0129 C.3       1 <0>        -1.0377
      4 O1         -2.1022   -0.0728    1.1886 O.3       1 <0>        -0.5061
      5 P1         -2.3150    0.0702   -1.4640 P.3       1 <0>         2.2835
      6 O2         -3.7645   -0.4645   -1.4531 O.2       1 <0>        -1.0818
      7 O3         -2.3360    1.6151   -1.4555 O.3       1 <0>        -1.0965
      8 O4         -1.5614   -0.4490   -2.7886 O.3       1 <0>        -0.8867
      9 P2         -1.4086   -2.3565    0.0029 P.3       1 <0>         2.2431
     10 O5         -0.6854   -2.8547   -1.2683 O.2       1 <0>        -1.0825
     11 O6         -0.6613   -2.8683    1.2545 O.3       1 <0>        -1.1016
     12 O7         -2.9190   -2.9137    0.0143 O.3       1 <0>        -0.8748
     13 C4          1.4167    2.0553   -0.0004 C.3       1 <0>        -0.0087
     14 N1          1.3968    3.5242    0.0076 N.4       1 <0>        -0.6329
     15 H1         -0.5459    1.8868   -0.8726 H         1 <0>         0.1440
     16 H2         -0.5289    1.8773    0.9072 H         1 <0>         0.0828
     17 H3          0.5123   -0.3556   -0.8948 H         1 <0>         0.0805
     18 H4          0.5293   -0.3651    0.8851 H         1 <0>         0.0648
     19 H5         -1.6869   -0.3571    2.0143 H         1 <0>         0.3487
     20 H6         -1.9767   -0.1647   -3.6144 H         1 <0>         0.4066
     21 H7         -2.9823   -3.8786    0.0097 H         1 <0>         0.4026
     22 H8          1.9439    1.6943    0.8826 H         1 <0>         0.1214
     23 H9          1.9269    1.7038   -0.8972 H         1 <0>         0.1284
     24 H10         2.3434    3.8734    0.0005 H         1 <0>         0.4248
     25 H11         0.9088    3.8584   -0.8098 H         1 <0>         0.4375
     26 H12         0.9245    3.8496    0.8378 H         1 <0>         0.4313
@<TRIPOS>BOND
     1    1    2 1
     2    1   13 1
     3    1   15 1
     4    1   16 1
     5    2    3 1
     6    2   17 1
     7    2   18 1
     8    3    4 1
     9    3    5 1
    10    3    9 1
    11    4   19 1
    12    5    6 2
    13    5    7 1
    14    5    8 1
    15    8   20 1
    16    9   10 2
    17    9   11 1
    18    9   12 1
    19   12   21 1
    20   13   14 1
    21   13   22 1
    22   13   23 1
    23   14   24 1
    24   14   25 1
    25   14   26 1
@<TRIPOS>MOLECULE
CHEMBL414849
   28    28     0     0     0
SMALL
USER_CHARGES

@<TRIPOS>ATOM
      1 C1         -0.0167    1.3784    0.0096 C.ar      1 <0>        -0.1729
      2 C2          1.1697    2.0893    0.0021 C.ar      1 <0>        -0.1012
      3 C3          2.3774    1.4200   -0.0130 C.ar      1 <0>        -0.2310
      4 C4          2.3998    0.0309   -0.0206 C.ar      1 <0>         0.2225
      5 C5          1.2066   -0.6799   -0.0130 C.ar      1 <0>        -0.1101
      6 C6          0.0021   -0.0041    0.0020 C.ar      1 <0>         0.0139
      7 C7          1.2261   -2.1868   -0.0217 C.3       1 <0>        -0.0520
      8 C8          1.3723   -2.7032    1.4110 C.3       1 <0>        -1.0228
      9 O1          2.5926   -2.2143    1.9713 O.3       1 <0>        -0.5055
     10 P1         -0.0337   -2.1195    2.4139 P.3       1 <0>         2.2163
     11 O2          0.0195   -0.5579    2.5287 O.2       1 <0>        -1.1624
     12 O3         -1.3765   -2.5474    1.7296 O.3       1 <0>        -1.1669
     13 O4          0.0477   -2.7514    3.8451 O.3       1 <0>        -1.1816
     14 P2          1.3959   -4.5260    1.4004 P.3       1 <0>         2.2712
     15 O5          0.0765   -5.0546    0.7947 O.2       1 <0>        -1.0969
     16 O6          2.5874   -5.0208    0.5505 O.3       1 <0>        -1.1361
     17 O7          1.5498   -5.0695    2.9081 O.3       1 <0>        -0.8692
     18 N1          3.6196   -0.6494   -0.0363 N.pl3     1 <0>        -0.8810
     19 H1         -0.9598    1.9044    0.0260 H         1 <0>         0.0965
     20 H2          1.1515    3.1691    0.0077 H         1 <0>         0.0916
     21 H3          3.3034    1.9757   -0.0192 H         1 <0>         0.0900
     22 H4         -0.9261   -0.5561    0.0079 H         1 <0>         0.1229
     23 H5          0.2953   -2.5597   -0.4491 H         1 <0>         0.0778
     24 H6          2.0667   -2.5358   -0.6214 H         1 <0>         0.0334
     25 H7          3.3844   -2.4867    1.4876 H         1 <0>         0.3035
     26 H8          1.5697   -6.0337    2.9785 H         1 <0>         0.3797
     27 H9          4.4523   -0.1519   -0.0419 H         1 <0>         0.3753
     28 H10         3.6341   -1.6192   -0.0416 H         1 <0>         0.3952
@<TRIPOS>BOND
     1    1    6 ar
     2    1    2 ar
     3    1   19 1
     4    2    3 ar
     5    2   20 1
     6    3    4 ar
     7    3   21 1
     8    4    5 ar
     9    4   18 1
    10    5    6 ar
    11    5    7 1
    12    6   22 1
    13    7    8 1
    14    7   23 1
    15    7   24 1
    16    8    9 1
    17    8   10 1
    18    8   14 1
    19    9   25 1
    20   10   11 2
    21   10   12 1
    22   10   13 1
    23   14   15 2
    24   14   16 1
    25   14   17 1
    26   17   26 1
    27   18   27 1
    28   18   28 1
@<TRIPOS>MOLECULE
CHEMBL414849__1
   29    29     0     0     0
SMALL
USER_CHARGES

@<TRIPOS>ATOM
      1 C1          2.3347    1.7277    0.6950 C.ar      1 <0>        -0.1743
      2 C2          1.0927    2.3160    0.8505 C.ar      1 <0>        -0.0898
      3 C3         -0.0499    1.5419    0.8082 C.ar      1 <0>        -0.2238
      4 C4          0.0491    0.1704    0.6091 C.ar      1 <0>         0.2309
      5 C5          1.2979   -0.4171    0.4532 C.ar      1 <0>        -0.1332
      6 C6          2.4368    0.3631    0.4967 C.ar      1 <0>         0.0042
      7 C7          1.4102   -1.9044    0.2375 C.3       1 <0>        -0.0648
      8 C8          1.3923   -2.6188    1.5904 C.3       1 <0>        -1.0240
      9 O1          0.2140   -2.2485    2.3090 O.3       1 <0>        -0.4947
     10 P1          1.4009   -4.4224    1.3253 P.3       1 <0>         2.2327
     11 O2          1.3829   -5.1437    2.6915 O.2       1 <0>        -1.0799
     12 O3          0.1522   -4.8293    0.5116 O.3       1 <0>        -1.1041
     13 O4          2.7285   -4.8395    0.5156 O.3       1 <0>        -0.8801
     14 P2          2.8657   -2.1387    2.5506 P.3       1 <0>         2.2762
     15 O5          4.1387   -2.4652    1.7382 O.2       1 <0>        -1.0964
     16 O6          2.8173   -0.6227    2.8447 O.3       1 <0>        -1.0842
     17 O7          2.8909   -2.9541    3.9385 O.3       1 <0>        -0.8821
     18 N1         -1.1046   -0.6157    0.5662 N.pl3     1 <0>        -0.8794
     19 H1          3.2266    2.3361    0.7240 H         1 <0>         0.1034
     20 H2          1.0165    3.3821    1.0057 H         1 <0>         0.1007
     21 H3         -1.0194    2.0018    0.9302 H         1 <0>         0.0993
     22 H4          3.4082   -0.0931    0.3756 H         1 <0>         0.1188
     23 H5          0.5703   -2.2484   -0.3661 H         1 <0>         0.0554
     24 H6          2.3440   -2.1272   -0.2787 H         1 <0>         0.0772
     25 H7         -0.6066   -2.5701    1.9112 H         1 <0>         0.3382
     26 H8          2.7997   -5.7875    0.3387 H         1 <0>         0.3997
     27 H9          3.6495   -2.7484    4.5019 H         1 <0>         0.3944
     28 H10        -1.9647   -0.2274    0.7906 H         1 <0>         0.3839
     29 H11        -1.0457   -1.5500    0.3121 H         1 <0>         0.3957
@<TRIPOS>BOND
     1    1    6 ar
     2    1    2 ar
     3    1   19 1
     4    2    3 ar
     5    2   20 1
     6    3    4 ar
     7    3   21 1
     8    4    5 ar
     9    4   18 1
    10    5    6 ar
    11    5    7 1
    12    6   22 1
    13    7    8 1
    14    7   23 1
    15    7   24 1
    16    8    9 1
    17    8   10 1
    18    8   14 1
    19    9   25 1
    20   10   11 2
    21   10   12 1
    22   10   13 1
    23   13   26 1
    24   14   15 2
    25   14   16 1
    26   14   17 1
    27   17   27 1
    28   18   28 1
    29   18   29 1
@<TRIPOS>MOLECULE
CHEMBL291727
   30    31     0     0     0
SMALL
USER_CHARGES

@<TRIPOS>ATOM
      1 C1         -0.0164    1.3586    0.0095 C.ar      1 <0>        -0.0726
      2 C2          1.1679    2.0917    0.0021 C.ar      1 <0>        -0.1339
      3 C3          2.3800    1.4686   -0.0133 C.ar      1 <0>        -0.0548
      4 C4          2.4370    0.0689   -0.0213 C.ar      1 <0>        -0.1275
      5 C5          1.2316   -0.6772   -0.0133 C.ar      1 <0>         0.0373
      6 C6          0.0021   -0.0041    0.0020 C.ar      1 <0>        -0.1308
      7 C7          1.3172   -2.0831   -0.0212 C.ar      1 <0>        -0.2215
      8 C8          2.5465   -2.6661   -0.0361 C.ar      1 <0>         0.1563
      9 N1          3.6636   -1.9508   -0.0434 N.ar      1 <0>        -0.4985
     10 C9          3.6638   -0.6313   -0.0368 C.ar      1 <0>         0.4717
     11 N2          4.8609    0.0637   -0.0445 N.pl3     1 <0>        -0.5451
     12 C10         6.1313   -0.6657   -0.0606 C.3       1 <0>        -1.0606
     13 P1          6.4209   -1.3451   -1.7272 P.3       1 <0>         2.1312
     14 O1          5.2540   -2.3204   -2.1036 O.2       1 <0>        -1.1547
     15 O2          6.4781   -0.1738   -2.7660 O.3       1 <0>        -1.1156
     16 O3          7.7795   -2.1252   -1.7444 O.3       1 <0>        -1.1324
     17 P2          7.4891    0.4691    0.3774 P.3       1 <0>         2.2757
     18 O4          7.5456    1.6243   -0.6470 O.2       1 <0>        -1.0694
     19 O5          7.2437    1.0450    1.7899 O.3       1 <0>        -1.1128
     20 O6          8.8853   -0.3325    0.3598 O.3       1 <0>        -0.8759
     21 H1         -0.9633    1.8778    0.0259 H         1 <0>         0.1299
     22 H2          1.1250    3.1708    0.0084 H         1 <0>         0.1351
     23 H3          3.2902    2.0499   -0.0195 H         1 <0>         0.1387
     24 H4         -0.9232   -0.5610    0.0082 H         1 <0>         0.1367
     25 H5          0.4224   -2.6879   -0.0152 H         1 <0>         0.1579
     26 H6          2.6148   -3.7439   -0.0418 H         1 <0>         0.1797
     27 H7          4.8586    1.0337   -0.0393 H         1 <0>         0.4295
     28 H8          6.0915   -1.4806    0.6622 H         1 <0>         0.0867
     29 H9          9.6534    0.2105    0.5840 H         1 <0>         0.4002
     30 H10         4.5145   -2.4164   -0.0537 H         1 <0>         0.4394
@<TRIPOS>BOND
     1    1    6 ar
     2    1    2 ar
     3    1   21 1
     4    2    3 ar
     5    2   22 1
     6    3    4 ar
     7    3   23 1
     8    4   10 ar
     9    4    5 ar
    10    5    6 ar
    11    5    7 ar
    12    6   24 1
    13    7    8 ar
    14    7   25 1
    15    8    9 ar
    16    8   26 1
    17    9   10 ar
    18    9   30 1
    19   10   11 1
    20   11   12 1
    21   11   27 1
    22   12   13 1
    23   12   17 1
    24   12   28 1
    25   13   14 2
    26   13   15 1
    27   13   16 1
    28   17   18 2
    29   17   19 1
    30   17   20 1
    31   20   29 1
@<TRIPOS>MOLECULE
CHEMBL291727__1
   29    30     0     0     0
SMALL
USER_CHARGES

@<TRIPOS>ATOM
      1 C1         -0.0164    1.3586    0.0095 C.ar      1 <0>        -0.0990
      2 C2          1.1679    2.0917    0.0021 C.ar      1 <0>        -0.1855
      3 C3          2.3800    1.4686   -0.0133 C.ar      1 <0>        -0.0491
      4 C4          2.4370    0.0689   -0.0213 C.ar      1 <0>        -0.1667
      5 C5          1.2316   -0.6772   -0.0133 C.ar      1 <0>         0.0324
      6 C6          0.0021   -0.0041    0.0020 C.ar      1 <0>        -0.1505
      7 C7          1.3172   -2.0831   -0.0212 C.ar      1 <0>        -0.3181
      8 C8          2.5465   -2.6661   -0.0361 C.ar      1 <0>         0.1865
      9 N1          3.6636   -1.9508   -0.0434 N.ar      1 <0>        -0.4964
     10 C9          3.6638   -0.6313   -0.0368 C.ar      1 <0>         0.4448
     11 N2          4.8609    0.0637   -0.0445 N.pl3     1 <0>        -0.5936
     12 C10         6.1313   -0.6657   -0.0606 C.3       1 <0>        -1.0317
     13 P1          6.4209   -1.3451   -1.7272 P.3       1 <0>         2.1900
     14 O1          5.2540   -2.3204   -2.1036 O.2       1 <0>        -1.1620
     15 O2          6.4781   -0.1738   -2.7660 O.3       1 <0>        -1.1608
     16 O3          7.7795   -2.1252   -1.7444 O.3       1 <0>        -1.1785
     17 P2          7.4891    0.4691    0.3774 P.3       1 <0>         2.2791
     18 O4          7.5456    1.6243   -0.6470 O.2       1 <0>        -1.0886
     19 O5          7.2437    1.0450    1.7899 O.3       1 <0>        -1.1317
     20 O6          8.8853   -0.3325    0.3598 O.3       1 <0>        -0.8757
     21 H1         -0.9633    1.8778    0.0259 H         1 <0>         0.1054
     22 H2          1.1250    3.1708    0.0084 H         1 <0>         0.1105
     23 H3          3.2902    2.0499   -0.0195 H         1 <0>         0.1212
     24 H4         -0.9232   -0.5610    0.0082 H         1 <0>         0.1125
     25 H5          0.4224   -2.6879   -0.0152 H         1 <0>         0.1104
     26 H6          2.6148   -3.7439   -0.0418 H         1 <0>         0.1316
     27 H7          4.8586    1.0337   -0.0393 H         1 <0>         0.4003
     28 H8          6.0915   -1.4806    0.6622 H         1 <0>         0.0757
     29 H9          9.6534    0.2105    0.5840 H         1 <0>         0.3874
@<TRIPOS>BOND
     1    1    6 ar
     2    1    2 ar
     3    1   21 1
     4    2    3 ar
     5    2   22 1
     6    3    4 ar
     7    3   23 1
     8    4   10 ar
     9    4    5 ar
    10    5    6 ar
    11    5    7 ar
    12    6   24 1
    13    7    8 ar
    14    7   25 1
    15    8    9 ar
    16    8   26 1
    17    9   10 ar
    18   10   11 1
    19   11   12 1
    20   11   27 1
    21   12   13 1
    22   12   17 1
    23   12   28 1
    24   13   14 2
    25   13   15 1
    26   13   16 1
    27   17   18 2
    28   17   19 1
    29   17   20 1
    30   20   29 1
@<TRIPOS>MOLECULE
CHEMBL301247
   24    24     0     0     0
SMALL
USER_CHARGES

@<TRIPOS>ATOM
      1 C1         -0.0161    1.3371    0.0094 C.2       1 <0>        -0.0382
      2 C2         -1.3023    1.7362    0.0179 C.2       1 <0>         0.1383
      3 N1         -2.0689    0.6022    0.0156 N.pl3     1 <0>        -0.4525
      4 C3         -1.2239   -0.4512    0.0057 C.cat     1 <0>         0.2744
      5 N2          0.0021   -0.0041    0.0020 N.pl3     1 <0>        -0.4815
      6 H1         -3.0381    0.5627    0.0201 H         1 <0>         0.4635
      7 C4         -1.8015    3.1581    0.0286 C.3       1 <0>        -0.0535
      8 C5         -1.8588    3.6892   -1.4051 C.3       1 <0>        -1.0254
      9 O1         -0.5517    3.6477   -1.9811 O.3       1 <0>        -0.5120
     10 P1         -2.9906    2.6551   -2.3915 P.3       1 <0>         2.1969
     11 O2         -2.4057    1.2065   -2.5093 O.2       1 <0>        -1.1806
     12 O3         -4.3904    2.5976   -1.6902 O.3       1 <0>        -1.1541
     13 O4         -3.1486    3.2725   -3.8227 O.3       1 <0>        -1.1592
     14 P2         -2.4628    5.4092   -1.3923 P.3       1 <0>         2.2736
     15 O5         -3.8760    5.4542   -0.7696 O.2       1 <0>        -1.0884
     16 O6         -1.5035    6.2856   -0.5563 O.3       1 <0>        -1.1249
     17 O7         -2.5230    5.9681   -2.9009 O.3       1 <0>        -0.8702
     18 H2          0.8490    1.9835    0.0046 H         1 <0>         0.2023
     19 H3         -1.5147   -1.4913    0.0014 H         1 <0>         0.2464
     20 H4         -2.7986    3.1898    0.4679 H         1 <0>         0.1057
     21 H5         -1.1248    3.7764    0.6183 H         1 <0>         0.0851
     22 H6          0.1041    4.1768   -1.5068 H         1 <0>         0.3207
     23 H7         -2.8365    6.8803   -2.9702 H         1 <0>         0.3892
     24 H8          0.8005   -0.5548   -0.0085 H         1 <0>         0.4445
@<TRIPOS>BOND
     1    1    5 1
     2    1   18 1
     3    1    2 2
     4    2    7 1
     5    2    3 1
     6    3    4 1
     7    3    6 1
     8    4   19 1
     9    4    5 2
    10    5   24 1
    11    7    8 1
    12    7   20 1
    13    7   21 1
    14    8    9 1
    15    8   10 1
    16    8   14 1
    17    9   22 1
    18   10   11 2
    19   10   12 1
    20   10   13 1
    21   14   15 2
    22   14   16 1
    23   14   17 1
    24   17   23 1
@<TRIPOS>MOLECULE
CHEMBL301247__1
   25    25     0     0     0
SMALL
USER_CHARGES

@<TRIPOS>ATOM
      1 C1         -0.0161    1.3371    0.0094 C.2       1 <0>         0.1156
      2 C2         -1.3023    1.7362    0.0179 C.2       1 <0>         0.0364
      3 N1         -2.0689    0.6022    0.0156 N.pl3     1 <0>        -0.4960
      4 C3         -1.2239   -0.4512    0.0057 C.cat     1 <0>         0.2311
      5 N2          0.0021   -0.0041    0.0020 N.pl3     1 <0>        -0.4657
      6 H1         -3.0381    0.5627    0.0201 H         1 <0>         0.4498
      7 C4         -1.8015    3.1581    0.0286 C.3       1 <0>        -0.0393
      8 C5         -1.8588    3.6892   -1.4051 C.3       1 <0>        -1.0334
      9 O1         -2.7460    2.8786   -2.1783 O.3       1 <0>        -0.5232
     10 P1         -2.4628    5.4092   -1.3923 P.3       1 <0>         2.2235
     11 O2         -1.4396    6.3089   -0.6637 O.2       1 <0>        -1.0535
     12 O3         -2.6479    5.9243   -2.9064 O.3       1 <0>        -0.8886
     13 O4         -3.8201    5.4730   -0.6570 O.3       1 <0>        -1.0922
     14 P2         -0.1913    3.6362   -2.1399 P.3       1 <0>         2.2774
     15 O5          0.7679    4.5126   -1.3040 O.2       1 <0>        -1.0621
     16 O6          0.3206    2.1785   -2.1508 O.3       1 <0>        -1.0967
     17 O7         -0.2516    4.1951   -3.6486 O.3       1 <0>        -0.8915
     18 H2          0.8490    1.9835    0.0046 H         1 <0>         0.2261
     19 H3         -1.5147   -1.4913    0.0014 H         1 <0>         0.2474
     20 H4         -2.7986    3.1898    0.4679 H         1 <0>         0.0886
     21 H5         -1.1248    3.7764    0.6183 H         1 <0>         0.1258
     22 H6         -3.6534    2.8599   -1.8445 H         1 <0>         0.3490
     23 H7          0.6025    4.1959   -4.1021 H         1 <0>         0.4081
     24 H8          0.8005   -0.5548   -0.0085 H         1 <0>         0.4542
     25 H9         -2.9677    6.8343   -2.9759 H         1 <0>         0.4091
@<TRIPOS>BOND
     1    1    5 1
     2    1   18 1
     3    1    2 2
     4    2    7 1
     5    2    3 1
     6    3    4 1
     7    3    6 1
     8    4   19 1
     9    4    5 2
    10    5   24 1
    11    7    8 1
    12    7   20 1
    13    7   21 1
    14    8    9 1
    15    8   10 1
    16    8   14 1
    17    9   22 1
    18   10   11 2
    19   10   12 1
    20   10   13 1
    21   12   25 1
    22   14   15 2
    23   14   16 1
    24   14   17 1
    25   17   23 1
@<TRIPOS>MOLECULE
CHEMBL301247__2
   23    23     0     0     0
SMALL
USER_CHARGES

@<TRIPOS>ATOM
      1 C1          0.0698    5.0636   -0.6812 C.2       1 <0>        -0.0468
      2 C2          0.5549    4.1241    0.1529 C.2       1 <0>         0.0567
      3 N1         -0.2622    4.0494    1.2140 N.2       1 <0>        -0.4755
      4 C3         -1.2352    4.9069    1.0691 C.2       1 <0>         0.1549
      5 N2         -1.0658    5.5605   -0.1004 N.pl3     1 <0>        -0.5732
      6 H1         -1.6412    6.2530   -0.4614 H         1 <0>         0.3991
      7 C4          1.7979    3.3010   -0.0674 C.3       1 <0>        -0.0220
      8 C5          2.7587    3.5044    1.1058 C.3       1 <0>        -1.0182
      9 O1          2.1182    3.1084    2.3203 O.3       1 <0>        -0.5253
     10 P1          4.2535    2.4928    0.8494 P.3       1 <0>         2.2220
     11 O2          3.8705    0.9743    0.8943 O.2       1 <0>        -1.1943
     12 O3          4.8807    2.8321   -0.5456 O.3       1 <0>        -1.1675
     13 O4          5.2939    2.8026    1.9790 O.3       1 <0>        -1.1767
     14 P2          3.2260    5.2633    1.2107 P.3       1 <0>         2.2705
     15 O5          3.9185    5.6914   -0.1024 O.2       1 <0>        -1.1034
     16 O6          1.9592    6.1206    1.4280 O.3       1 <0>        -1.1201
     17 O7          4.2371    5.4773    2.4452 O.3       1 <0>        -0.8723
     18 H2          0.4971    5.3695   -1.6247 H         1 <0>         0.1644
     19 H3         -2.0425    5.0670    1.7685 H         1 <0>         0.1866
     20 H4          1.5281    2.2473   -0.1376 H         1 <0>         0.0554
     21 H5          2.2821    3.6145   -0.9922 H         1 <0>         0.0801
     22 H6          1.3136    3.6059    2.5209 H         1 <0>         0.3293
     23 H7          4.5281    6.3921    2.5612 H         1 <0>         0.3763
@<TRIPOS>BOND
     1    1    5 1
     2    1    2 2
     3    1   18 1
     4    2    3 1
     5    2    7 1
     6    3    4 2
     7    4    5 1
     8    4   19 1
     9    5    6 1
    10    7    8 1
    11    7   20 1
    12    7   21 1
    13    8    9 1
    14    8   10 1
    15    8   14 1
    16    9   22 1
    17   10   11 2
    18   10   12 1
    19   10   13 1
    20   14   15 2
    21   14   16 1
    22   14   17 1
    23   17   23 1
@<TRIPOS>MOLECULE
CHEMBL301247__3
   23    23     0     0     0
SMALL
USER_CHARGES

@<TRIPOS>ATOM
      1 C1         -0.0161    1.3371    0.0094 C.2       1 <0>        -0.0609
      2 C2         -1.3023    1.7362    0.0179 C.2       1 <0>         0.0600
      3 N1         -2.0689    0.6022    0.0156 N.pl3     1 <0>        -0.5111
      4 C3         -1.2239   -0.4512    0.0057 C.2       1 <0>         0.1576
      5 N2          0.0021   -0.0041    0.0020 N.2       1 <0>        -0.5201
      6 H1         -3.0381    0.5627    0.0201 H         1 <0>         0.4189
      7 C4         -1.8015    3.1581    0.0286 C.3       1 <0>        -0.0322
      8 C5         -1.8594    3.6890   -1.4052 C.3       1 <0>        -1.0244
      9 O1         -0.5525    3.6474   -1.9817 O.3       1 <0>        -0.5092
     10 P1         -2.9916    2.6548   -2.3910 P.3       1 <0>         2.2125
     11 O2         -2.4067    1.2062   -2.5087 O.2       1 <0>        -1.1726
     12 O3         -4.3911    2.5974   -1.6891 O.3       1 <0>        -1.1686
     13 O4         -3.1501    3.2719   -3.8222 O.3       1 <0>        -1.1774
     14 P2         -2.4634    5.4090   -1.3923 P.3       1 <0>         2.2743
     15 O5         -3.8763    5.4540   -0.7691 O.2       1 <0>        -1.0973
     16 O6         -1.5038    6.2855   -0.5569 O.3       1 <0>        -1.1336
     17 O7         -2.5242    5.9677   -2.9011 O.3       1 <0>        -0.8689
     18 H2          0.8490    1.9835    0.0046 H         1 <0>         0.1424
     19 H3         -1.5147   -1.4913    0.0014 H         1 <0>         0.1832
     20 H4         -2.7984    3.1898    0.4683 H         1 <0>         0.0772
     21 H5         -1.1245    3.7765    0.6180 H         1 <0>         0.0566
     22 H6          0.1035    4.1766   -1.5077 H         1 <0>         0.3127
     23 H7         -2.8377    6.8799   -2.9703 H         1 <0>         0.3808
@<TRIPOS>BOND
     1    1    5 1
     2    1   18 1
     3    1    2 2
     4    2    7 1
     5    2    3 1
     6    3    4 1
     7    3    6 1
     8    4   19 1
     9    4    5 2
    10    7    8 1
    11    7   20 1
    12    7   21 1
    13    8    9 1
    14    8   10 1
    15    8   14 1
    16    9   22 1
    17   10   11 2
    18   10   12 1
    19   10   13 1
    20   14   15 2
    21   14   16 1
    22   14   17 1
    23   17   23 1
@<TRIPOS>MOLECULE
CHEMBL294191
   27    27     0     0     0
SMALL
USER_CHARGES

@<TRIPOS>ATOM
      1 C1         -0.0168    1.3905    0.0097 C.ar      1 <0>        -0.1820
      2 C2          1.1792    2.0768    0.0020 C.ar      1 <0>         0.1177
      3 N1          2.3301    1.4307   -0.0125 N.ar      1 <0>        -0.5336
      4 C3          2.3899    0.1121   -0.0202 C.ar      1 <0>         0.1354
      5 C4          1.2393   -0.6478   -0.0133 C.ar      1 <0>        -0.2179
      6 C5          0.0021   -0.0041    0.0020 C.ar      1 <0>         0.2902
      7 N2         -1.1826   -0.7342    0.0099 N.pl3     1 <0>        -0.5589
      8 C6         -1.1407   -2.1986    0.0016 C.3       1 <0>         0.1528
      9 C7         -2.5679   -2.7498    0.0128 C.3       1 <0>        -1.3171
     10 P1         -3.4295   -2.1751    1.5130 P.3       1 <0>         2.1983
     11 O1         -2.6636   -2.6827    2.7819 O.2       1 <0>        -1.1841
     12 O2         -3.4744   -0.6091    1.5218 O.3       1 <0>        -1.1498
     13 O3         -4.8909   -2.7395    1.5245 O.3       1 <0>        -1.1633
     14 P2         -3.4590   -2.1591   -1.4638 P.3       1 <0>         2.3030
     15 O4         -3.5033   -0.6148   -1.4550 O.2       1 <0>        -1.0995
     16 O5         -2.7288   -2.6462   -2.7352 O.3       1 <0>        -1.1332
     17 O6         -4.9609   -2.7391   -1.4520 O.3       1 <0>        -0.8783
     18 H1         -0.9550    1.9254    0.0260 H         1 <0>         0.1769
     19 H2          1.1741    3.1568    0.0074 H         1 <0>         0.1857
     20 H3          3.3523   -0.3778   -0.0323 H         1 <0>         0.1822
     21 H4          1.2953   -1.7264   -0.0196 H         1 <0>         0.1613
     22 H5         -2.0362   -0.2736    0.0208 H         1 <0>         0.4602
     23 H6         -0.6255   -2.5422   -0.8954 H         1 <0>         0.0662
     24 H7         -0.6078   -2.5518    0.8844 H         1 <0>         0.0748
     25 H8         -2.5366   -3.8393    0.0066 H         1 <0>         0.0964
     26 H9         -5.4945   -2.4647   -2.2103 H         1 <0>         0.3915
     27 H10         3.1558    1.9396   -0.0180 H         1 <0>         0.4252
@<TRIPOS>BOND
     1    1    6 ar
     2    1    2 ar
     3    1   18 1
     4    2    3 ar
     5    2   19 1
     6    3    4 ar
     7    3   27 1
     8    4    5 ar
     9    4   20 1
    10    5    6 ar
    11    5   21 1
    12    6    7 1
    13    7    8 1
    14    7   22 1
    15    8    9 1
    16    8   23 1
    17    8   24 1
    18    9   10 1
    19    9   14 1
    20    9   25 1
    21   10   11 2
    22   10   12 1
    23   10   13 1
    24   14   15 2
    25   14   16 1
    26   14   17 1
    27   17   26 1
@<TRIPOS>MOLECULE
CHEMBL294191__1
   28    28     0     0     0
SMALL
USER_CHARGES

@<TRIPOS>ATOM
      1 C1         -0.0168    1.3905    0.0097 C.ar      1 <0>        -0.1929
      2 C2          1.1792    2.0768    0.0020 C.ar      1 <0>         0.1387
      3 N1          2.3301    1.4307   -0.0125 N.ar      1 <0>        -0.5171
      4 C3          2.3899    0.1121   -0.0202 C.ar      1 <0>         0.1508
      5 C4          1.2393   -0.6478   -0.0133 C.ar      1 <0>        -0.2190
      6 C5          0.0021   -0.0041    0.0020 C.ar      1 <0>         0.3125
      7 N2         -1.1826   -0.7342    0.0099 N.pl3     1 <0>        -0.6205
      8 C6         -1.1407   -2.1986    0.0016 C.3       1 <0>         0.1433
      9 C7         -2.5679   -2.7498    0.0128 C.3       1 <0>        -1.3159
     10 P1         -3.4295   -2.1751    1.5130 P.3       1 <0>         2.2552
     11 O1         -4.9494   -2.4016    1.3527 O.2       1 <0>        -1.0729
     12 O2         -2.9170   -2.9671    2.7366 O.3       1 <0>        -1.0985
     13 O3         -3.1407   -0.6061    1.7299 O.3       1 <0>        -0.9011
     14 P2         -3.4590   -2.1591   -1.4638 P.3       1 <0>         2.2867
     15 O4         -3.5033   -0.6148   -1.4550 O.2       1 <0>        -1.0987
     16 O5         -2.7288   -2.6462   -2.7352 O.3       1 <0>        -1.1083
     17 O6         -4.9609   -2.7391   -1.4520 O.3       1 <0>        -0.8758
     18 H1         -0.9550    1.9254    0.0260 H         1 <0>         0.1789
     19 H2          1.1741    3.1568    0.0074 H         1 <0>         0.1946
     20 H3          3.3523   -0.3778   -0.0323 H         1 <0>         0.1923
     21 H4          1.2953   -1.7264   -0.0196 H         1 <0>         0.1677
     22 H5         -2.0362   -0.2736    0.0208 H         1 <0>         0.4483
     23 H6         -0.6255   -2.5422   -0.8954 H         1 <0>         0.0859
     24 H7         -0.6078   -2.5518    0.8844 H         1 <0>         0.0789
     25 H8         -2.5366   -3.8393    0.0066 H         1 <0>         0.1352
     26 H9         -3.5690   -0.2318    2.5119 H         1 <0>         0.4130
     27 H10        -5.4945   -2.4647   -2.2103 H         1 <0>         0.4042
     28 H11         3.1558    1.9396   -0.0180 H         1 <0>         0.4344
@<TRIPOS>BOND
     1    1    6 ar
     2    1    2 ar
     3    1   18 1
     4    2    3 ar
     5    2   19 1
     6    3    4 ar
     7    3   28 1
     8    4    5 ar
     9    4   20 1
    10    5    6 ar
    11    5   21 1
    12    6    7 1
    13    7    8 1
    14    7   22 1
    15    8    9 1
    16    8   23 1
    17    8   24 1
    18    9   10 1
    19    9   14 1
    20    9   25 1
    21   10   11 2
    22   10   12 1
    23   10   13 1
    24   13   26 1
    25   14   15 2
    26   14   16 1
    27   14   17 1
    28   17   27 1
@<TRIPOS>MOLECULE
CHEMBL111695
   36    35     0     0     0
SMALL
USER_CHARGES

@<TRIPOS>ATOM
      1 C1         -0.0187    1.5258    0.0104 C.3       1 <0>        -0.1498
      2 C2          0.0021   -0.0041    0.0020 C.3       1 <0>        -0.1248
      3 C3         -1.4333   -0.5336    0.0129 C.3       1 <0>        -0.1207
      4 C4         -1.4126   -2.0635    0.0045 C.3       1 <0>        -0.1179
      5 C5         -2.8479   -2.5931    0.0153 C.3       1 <0>        -0.1166
      6 C6         -2.8272   -4.1229    0.0069 C.3       1 <0>        -0.1120
      7 C7         -4.2626   -4.6525    0.0178 C.3       1 <0>        -0.1533
      8 C8         -4.2418   -6.1823    0.0094 C.3       1 <0>        -0.0369
      9 C9         -5.6772   -6.7119    0.0202 C.3       1 <0>        -1.2859
     10 P1         -6.4838   -6.2491    1.5882 P.3       1 <0>         2.2288
     11 O1         -5.6891   -6.8697    2.7873 O.2       1 <0>        -1.1683
     12 O2         -6.5019   -4.6886    1.7255 O.3       1 <0>        -1.1882
     13 O3         -7.9536   -6.7914    1.5993 O.3       1 <0>        -1.1902
     14 P2         -5.6562   -8.5278   -0.1395 P.3       1 <0>         2.2983
     15 O4         -4.9726   -8.9200   -1.4684 O.2       1 <0>        -1.1482
     16 O5         -4.8725   -9.1398    1.0430 O.3       1 <0>        -1.1034
     17 O6         -7.1666   -9.0850   -0.1281 O.3       1 <0>        -0.8817
     18 H1          1.0039    1.9031    0.0027 H         1 <0>         0.0457
     19 H2         -0.5459    1.8868   -0.8726 H         1 <0>         0.0504
     20 H3         -0.5289    1.8773    0.9072 H         1 <0>         0.0527
     21 H4          0.5123   -0.3556   -0.8948 H         1 <0>         0.0566
     22 H5          0.5293   -0.3651    0.8851 H         1 <0>         0.0595
     23 H6         -1.9435   -0.1821    0.9097 H         1 <0>         0.0621
     24 H7         -1.9605   -0.1726   -0.8702 H         1 <0>         0.0569
     25 H8         -0.9024   -2.4150   -0.8923 H         1 <0>         0.0529
     26 H9         -0.8854   -2.4246    0.8875 H         1 <0>         0.0592
     27 H10        -3.3581   -2.2415    0.9121 H         1 <0>         0.0668
     28 H11        -3.3751   -2.2320   -0.8677 H         1 <0>         0.0509
     29 H12        -2.3170   -4.4744   -0.8899 H         1 <0>         0.0373
     30 H13        -2.3000   -4.4840    0.8900 H         1 <0>         0.0551
     31 H14        -4.7728   -4.3010    0.9146 H         1 <0>         0.1333
     32 H15        -4.7898   -4.2914   -0.8653 H         1 <0>         0.0255
     33 H16        -3.7316   -6.5338   -0.8874 H         1 <0>         0.0152
     34 H17        -3.7146   -6.5434    0.8924 H         1 <0>         0.0585
     35 H18        -6.2301   -6.2801   -0.8140 H         1 <0>         0.0517
     36 H19        -7.2318  -10.0464   -0.2096 H         1 <0>         0.3805
@<TRIPOS>BOND
     1    1    2 1
     2    1   18 1
     3    1   19 1
     4    1   20 1
     5    2    3 1
     6    2   21 1
     7    2   22 1
     8    3    4 1
     9    3   23 1
    10    3   24 1
    11    4    5 1
    12    4   25 1
    13    4   26 1
    14    5    6 1
    15    5   27 1
    16    5   28 1
    17    6    7 1
    18    6   29 1
    19    6   30 1
    20    7    8 1
    21    7   31 1
    22    7   32 1
    23    8    9 1
    24    8   33 1
    25    8   34 1
    26    9   10 1
    27    9   14 1
    28    9   35 1
    29   10   11 2
    30   10   12 1
    31   10   13 1
    32   14   15 2
    33   14   16 1
    34   14   17 1
    35   17   36 1
@<TRIPOS>MOLECULE
CHEMBL111695__1
   37    36     0     0     0
SMALL
USER_CHARGES

@<TRIPOS>ATOM
      1 C1         -0.0187    1.5258    0.0104 C.3       1 <0>        -0.1513
      2 C2          0.0021   -0.0041    0.0020 C.3       1 <0>        -0.1252
      3 C3          0.7182   -0.4975   -1.2568 C.3       1 <0>        -0.1208
      4 C4          0.7390   -2.0273   -1.2652 C.3       1 <0>        -0.1191
      5 C5          1.4551   -2.5207   -2.5240 C.3       1 <0>        -0.1176
      6 C6          1.4758   -4.0506   -2.5324 C.3       1 <0>        -0.1150
      7 C7          2.1920   -4.5440   -3.7912 C.3       1 <0>        -0.1541
      8 C8          2.2127   -6.0738   -3.7996 C.3       1 <0>        -0.0566
      9 C9          2.9289   -6.5673   -5.0584 C.3       1 <0>        -1.2904
     10 P1          3.0850   -8.3825   -4.9967 P.3       1 <0>         2.2748
     11 O1          3.9004   -8.7871   -3.7483 O.2       1 <0>        -1.1190
     12 O2          1.6788   -9.0181   -4.9215 O.3       1 <0>        -1.0972
     13 O3          3.8386   -8.9017   -6.3213 O.3       1 <0>        -0.8848
     14 P2          1.9668   -6.0899   -6.5315 P.3       1 <0>         2.2816
     15 O4          1.8345   -4.5514   -6.5838 O.2       1 <0>        -1.1066
     16 O5          2.6900   -6.5881   -7.8026 O.3       1 <0>        -1.1045
     17 O6          0.5014   -6.7522   -6.4532 O.3       1 <0>        -0.8820
     18 H1          1.0039    1.9031    0.0027 H         1 <0>         0.0516
     19 H2         -0.5459    1.8868   -0.8726 H         1 <0>         0.0528
     20 H3         -0.5289    1.8773    0.9072 H         1 <0>         0.0484
     21 H4          0.5293   -0.3651    0.8851 H         1 <0>         0.0581
     22 H5         -1.0205   -0.3814    0.0098 H         1 <0>         0.0596
     23 H6          0.1910   -0.1364   -2.1398 H         1 <0>         0.0616
     24 H7          1.7408   -0.1202   -1.2645 H         1 <0>         0.0585
     25 H8          1.2661   -2.3884   -0.3821 H         1 <0>         0.0560
     26 H9         -0.2836   -2.4046   -1.2575 H         1 <0>         0.0593
     27 H10         0.9279   -2.1597   -3.4071 H         1 <0>         0.0656
     28 H11         2.4777   -2.1435   -2.5317 H         1 <0>         0.0553
     29 H12         2.0030   -4.4117   -1.6494 H         1 <0>         0.0471
     30 H13         0.4533   -4.4279   -2.5247 H         1 <0>         0.0561
     31 H14         1.6648   -4.1829   -4.6743 H         1 <0>         0.1204
     32 H15         3.2146   -4.1667   -3.7990 H         1 <0>         0.0421
     33 H16         2.7399   -6.4349   -2.9166 H         1 <0>         0.0459
     34 H17         1.1901   -6.4511   -3.7919 H         1 <0>         0.0586
     35 H18         3.9210   -6.1188   -5.1114 H         1 <0>         0.0980
     36 H19         3.9567   -9.8608   -6.3562 H         1 <0>         0.3967
     37 H20        -0.0668   -6.5402   -7.2064 H         1 <0>         0.3961
@<TRIPOS>BOND
     1    1    2 1
     2    1   18 1
     3    1   19 1
     4    1   20 1
     5    2    3 1
     6    2   21 1
     7    2   22 1
     8    3    4 1
     9    3   23 1
    10    3   24 1
    11    4    5 1
    12    4   25 1
    13    4   26 1
    14    5    6 1
    15    5   27 1
    16    5   28 1
    17    6    7 1
    18    6   29 1
    19    6   30 1
    20    7    8 1
    21    7   31 1
    22    7   32 1
    23    8    9 1
    24    8   33 1
    25    8   34 1
    26    9   10 1
    27    9   14 1
    28    9   35 1
    29   10   11 2
    30   10   12 1
    31   10   13 1
    32   13   36 1
    33   14   15 2
    34   14   16 1
    35   14   17 1
    36   17   37 1
@<TRIPOS>MOLECULE
CHEMBL322081
   30    29     0     0     0
SMALL
USER_CHARGES

@<TRIPOS>ATOM
      1 C1         -0.0187    1.5258    0.0104 C.3       1 <0>        -0.1470
      2 C2          0.0021   -0.0041    0.0020 C.3       1 <0>        -0.1239
      3 C3          0.7182   -0.4975   -1.2568 C.3       1 <0>        -0.1172
      4 C4          0.7390   -2.0273   -1.2652 C.3       1 <0>        -0.1126
      5 C5          1.4551   -2.5207   -2.5240 C.3       1 <0>        -0.1537
      6 C6          1.4758   -4.0506   -2.5324 C.3       1 <0>        -0.0370
      7 C7          2.1920   -4.5440   -3.7912 C.3       1 <0>        -1.2855
      8 P1          1.2299   -4.0666   -5.2643 P.3       1 <0>         2.2290
      9 O1         -0.1960   -4.7111   -5.1881 O.2       1 <0>        -1.1683
     10 O2          1.0957   -2.5066   -5.3173 O.3       1 <0>        -1.1885
     11 O3          1.9632   -4.5718   -6.5532 O.3       1 <0>        -1.1902
     12 P2          2.3481   -6.3592   -3.7294 P.3       1 <0>         2.2983
     13 O4          3.1635   -6.7638   -2.4810 O.2       1 <0>        -1.1482
     14 O5          0.9419   -6.9948   -3.6543 O.3       1 <0>        -1.1035
     15 O6          3.1017   -6.8785   -5.0541 O.3       1 <0>        -0.8817
     16 H1          1.0039    1.9031    0.0027 H         1 <0>         0.0481
     17 H2         -0.5459    1.8868   -0.8726 H         1 <0>         0.0533
     18 H3         -0.5289    1.8773    0.9072 H         1 <0>         0.0416
     19 H4          0.5293   -0.3651    0.8851 H         1 <0>         0.0525
     20 H5         -1.0205   -0.3814    0.0098 H         1 <0>         0.0589
     21 H6          0.1910   -0.1364   -2.1398 H         1 <0>         0.0669
     22 H7          1.7408   -0.1202   -1.2645 H         1 <0>         0.0509
     23 H8          1.2661   -2.3884   -0.3821 H         1 <0>         0.0374
     24 H9         -0.2836   -2.4046   -1.2575 H         1 <0>         0.0552
     25 H10         0.9279   -2.1597   -3.4071 H         1 <0>         0.1334
     26 H11         2.4777   -2.1435   -2.5317 H         1 <0>         0.0257
     27 H12         2.0030   -4.4117   -1.6494 H         1 <0>         0.0153
     28 H13         0.4533   -4.4279   -2.5247 H         1 <0>         0.0586
     29 H14         3.1841   -4.0956   -3.8442 H         1 <0>         0.0516
     30 H15         3.2198   -7.8376   -5.0890 H         1 <0>         0.3804
@<TRIPOS>BOND
     1    1    2 1
     2    1   16 1
     3    1   17 1
     4    1   18 1
     5    2    3 1
     6    2   19 1
     7    2   20 1
     8    3    4 1
     9    3   21 1
    10    3   22 1
    11    4    5 1
    12    4   23 1
    13    4   24 1
    14    5    6 1
    15    5   25 1
    16    5   26 1
    17    6    7 1
    18    6   27 1
    19    6   28 1
    20    7    8 1
    21    7   12 1
    22    7   29 1
    23    8    9 2
    24    8   10 1
    25    8   11 1
    26   12   13 2
    27   12   14 1
    28   12   15 1
    29   15   30 1
@<TRIPOS>MOLECULE
CHEMBL322081__1
   31    30     0     0     0
SMALL
USER_CHARGES

@<TRIPOS>ATOM
      1 C1         -0.0187    1.5258    0.0104 C.3       1 <0>        -0.1496
      2 C2          0.0021   -0.0041    0.0020 C.3       1 <0>        -0.1246
      3 C3          0.7182   -0.4975   -1.2568 C.3       1 <0>        -0.1195
      4 C4          0.7390   -2.0273   -1.2652 C.3       1 <0>        -0.1172
      5 C5          1.4551   -2.5207   -2.5240 C.3       1 <0>        -0.1347
      6 C6          1.4758   -4.0506   -2.5324 C.3       1 <0>        -0.0612
      7 C7          2.1920   -4.5440   -3.7912 C.3       1 <0>        -1.2926
      8 P1          3.9424   -4.0383   -3.7322 P.3       1 <0>         2.2814
      9 O1          4.7449   -4.8366   -4.7837 O.2       1 <0>        -1.0993
     10 O2          4.0527   -2.5279   -4.0381 O.3       1 <0>        -1.1141
     11 O3          4.5372   -4.3336   -2.2655 O.3       1 <0>        -0.8877
     12 P2          2.0873   -6.3620   -3.8768 P.3       1 <0>         2.2872
     13 O4          2.7589   -6.9758   -2.6281 O.2       1 <0>        -1.1052
     14 O5          0.6038   -6.7906   -3.9268 O.3       1 <0>        -1.1227
     15 O6          2.8408   -6.8812   -5.2014 O.3       1 <0>        -0.8796
     16 H1          1.0039    1.9031    0.0027 H         1 <0>         0.0532
     17 H2         -0.5459    1.8868   -0.8726 H         1 <0>         0.0506
     18 H3         -0.5289    1.8773    0.9072 H         1 <0>         0.0466
     19 H4          0.5293   -0.3651    0.8851 H         1 <0>         0.0595
     20 H5         -1.0205   -0.3814    0.0098 H         1 <0>         0.0566
     21 H6          0.1910   -0.1364   -2.1398 H         1 <0>         0.0568
     22 H7          1.7408   -0.1202   -1.2645 H         1 <0>         0.0643
     23 H8          1.2661   -2.3884   -0.3821 H         1 <0>         0.0588
     24 H9         -0.2836   -2.4046   -1.2575 H         1 <0>         0.0521
     25 H10         0.9279   -2.1597   -3.4071 H         1 <0>         0.0482
     26 H11         2.4777   -2.1435   -2.5317 H         1 <0>         0.0892
     27 H12         2.0030   -4.4117   -1.6494 H         1 <0>         0.0640
     28 H13         0.4533   -4.4279   -2.5247 H         1 <0>         0.0495
     29 H14         1.7182   -4.1109   -4.6721 H         1 <0>         0.0980
     30 H15         5.4668   -4.0885   -2.1614 H         1 <0>         0.3970
     31 H16         2.8249   -7.8417   -5.3120 H         1 <0>         0.3948
@<TRIPOS>BOND
     1    1    2 1
     2    1   16 1
     3    1   17 1
     4    1   18 1
     5    2    3 1
     6    2   19 1
     7    2   20 1
     8    3    4 1
     9    3   21 1
    10    3   22 1
    11    4    5 1
    12    4   23 1
    13    4   24 1
    14    5    6 1
    15    5   25 1
    16    5   26 1
    17    6    7 1
    18    6   27 1
    19    6   28 1
    20    7    8 1
    21    7   12 1
    22    7   29 1
    23    8    9 2
    24    8   10 1
    25    8   11 1
    26   11   30 1
    27   12   13 2
    28   12   14 1
    29   12   15 1
    30   15   31 1
@<TRIPOS>MOLECULE
CHEMBL406820
   31    31     0     0     0
SMALL
USER_CHARGES

@<TRIPOS>ATOM
      1 C1          0.8403    1.5233    0.3272 C.3       1 <0>        -0.1326
      2 C2          2.2834    1.9063   -0.0135 C.3       1 <0>        -0.1370
      3 C3          2.6446    1.3399   -1.3884 C.3       1 <0>        -0.0060
      4 N1          2.5166   -0.1222   -1.3683 N.4       1 <0>        -0.4931
      5 C4          1.1204   -0.4965   -1.1131 C.3       1 <0>        -0.0155
      6 C5          0.7006   -0.0007    0.2724 C.3       1 <0>        -0.1344
      7 C6          0.9822   -2.0190   -1.1728 C.3       1 <0>        -0.0678
      8 C7          1.3654   -2.5115   -2.5698 C.3       1 <0>        -1.2889
      9 P1          1.3931   -4.3342   -2.5851 P.3       1 <0>         2.1962
     10 O1          2.1974   -4.8548   -1.3455 O.2       1 <0>        -1.1895
     11 O2         -0.0743   -4.8794   -2.5219 O.3       1 <0>        -1.1456
     12 O3          2.0799   -4.8350   -3.9011 O.3       1 <0>        -1.1764
     13 P2          0.1428   -1.9122   -3.7820 P.3       1 <0>         2.2958
     14 O4         -1.2568   -2.4516   -3.4116 O.2       1 <0>        -1.0832
     15 O5          0.1193   -0.3674   -3.7689 O.3       1 <0>        -1.1353
     16 O6          0.5460   -2.4304   -5.2520 O.3       1 <0>        -0.8865
     17 H1          0.5966    1.8758    1.3294 H         1 <0>         0.0783
     18 H2          0.1624    1.9777   -0.3952 H         1 <0>         0.0832
     19 H3          2.3773    2.9921   -0.0310 H         1 <0>         0.0968
     20 H4          2.9565    1.4941    0.7382 H         1 <0>         0.0761
     21 H5          1.9711    1.7529   -2.1393 H         1 <0>         0.1349
     22 H6          3.6714    1.6109   -1.6341 H         1 <0>         0.1129
     23 H7          2.8066   -0.4965   -2.2593 H         1 <0>         0.4289
     24 H8          0.4794   -0.0444   -1.8699 H         1 <0>         0.1882
     25 H9          1.3408   -0.4525    1.0300 H         1 <0>         0.0726
     26 H10        -0.3369   -0.2781    0.4592 H         1 <0>         0.1063
     27 H11         1.6423   -2.4731   -0.4337 H         1 <0>         0.0671
     28 H12        -0.0494   -2.2988   -0.9592 H         1 <0>         0.1061
     29 H13         2.3528   -2.1309   -2.8310 H         1 <0>         0.0496
     30 H14        -0.0621   -2.1484   -5.9490 H         1 <0>         0.3927
     31 H15         3.1036   -0.5002   -0.6398 H         1 <0>         0.4061
@<TRIPOS>BOND
     1    1    6 1
     2    1    2 1
     3    1   17 1
     4    1   18 1
     5    2    3 1
     6    2   19 1
     7    2   20 1
     8    3    4 1
     9    3   21 1
    10    3   22 1
    11    4    5 1
    12    4   23 1
    13    4   31 1
    14    5    6 1
    15    5    7 1
    16    5   24 1
    17    6   25 1
    18    6   26 1
    19    7    8 1
    20    7   27 1
    21    7   28 1
    22    8    9 1
    23    8   13 1
    24    8   29 1
    25    9   10 2
    26    9   11 1
    27    9   12 1
    28   13   14 2
    29   13   15 1
    30   13   16 1
    31   16   30 1
@<TRIPOS>MOLECULE
CHEMBL406820__1
   32    32     0     0     0
SMALL
USER_CHARGES

@<TRIPOS>ATOM
      1 C1         -0.0187    1.5272    0.0104 C.3       1 <0>        -0.1344
      2 C2          1.4216    2.0475   -0.0005 C.3       1 <0>        -0.1396
      3 C3          2.1524    1.4841   -1.2212 C.3       1 <0>        -0.0069
      4 N1          2.1608    0.0177   -1.1573 N.4       1 <0>        -0.4937
      5 C4          0.7855   -0.4914   -1.2188 C.3       1 <0>        -0.0204
      6 C5          0.0021   -0.0041    0.0020 C.3       1 <0>        -0.1348
      7 C6          0.8087   -2.0212   -1.2316 C.3       1 <0>        -0.0843
      8 C7          1.4795   -2.5102   -2.5168 C.3       1 <0>        -1.3049
      9 P1          1.6412   -4.3253   -2.4652 P.3       1 <0>         2.2729
     10 O1          2.5021   -4.7313   -1.2482 O.2       1 <0>        -1.1082
     11 O2          0.2398   -4.9638   -2.3405 O.3       1 <0>        -1.0848
     12 O3          2.3470   -4.8400   -3.8176 O.3       1 <0>        -0.8861
     13 P2          0.4636   -2.0313   -3.9528 P.3       1 <0>         2.2761
     14 O4          0.3266   -0.4930   -3.9965 O.2       1 <0>        -1.1030
     15 O5          1.1410   -2.5251   -5.2506 O.3       1 <0>        -1.0861
     16 O6         -0.9967   -2.6966   -3.8229 O.3       1 <0>        -0.8814
     17 H1         -0.5268    1.8799    0.9079 H         1 <0>         0.0841
     18 H2         -0.5438    1.8894   -0.8733 H         1 <0>         0.0854
     19 H3          1.4148    3.1363   -0.0508 H         1 <0>         0.1030
     20 H4          1.9311    1.7276    0.9084 H         1 <0>         0.0788
     21 H5          1.6422    1.8049   -2.1295 H         1 <0>         0.1385
     22 H6          3.1781    1.8528   -1.2322 H         1 <0>         0.1198
     23 H7          2.6891   -0.3488   -1.9349 H         1 <0>         0.4279
     24 H8          0.3045   -0.1286   -2.1271 H         1 <0>         0.1936
     25 H9          0.4821   -0.3666    0.9110 H         1 <0>         0.0765
     26 H10        -1.0193   -0.3817   -0.0464 H         1 <0>         0.1068
     27 H11         1.3683   -2.3833   -0.3692 H         1 <0>         0.0768
     28 H12        -0.2122   -2.4004   -1.1876 H         1 <0>         0.1096
     29 H13         2.4682   -2.0598   -2.6048 H         1 <0>         0.0959
     30 H14         2.4656   -5.7988   -3.8591 H         1 <0>         0.4065
     31 H15        -1.5923   -2.4839   -4.5544 H         1 <0>         0.4070
     32 H16         2.5894   -0.2778   -0.2930 H         1 <0>         0.4092
@<TRIPOS>BOND
     1    1    6 1
     2    1    2 1
     3    1   17 1
     4    1   18 1
     5    2    3 1
     6    2   19 1
     7    2   20 1
     8    3    4 1
     9    3   21 1
    10    3   22 1
    11    4    5 1
    12    4   23 1
    13    4   32 1
    14    5    6 1
    15    5    7 1
    16    5   24 1
    17    6   25 1
    18    6   26 1
    19    7    8 1
    20    7   27 1
    21    7   28 1
    22    8    9 1
    23    8   13 1
    24    8   29 1
    25    9   10 2
    26    9   11 1
    27    9   12 1
    28   12   30 1
    29   13   14 2
    30   13   15 1
    31   13   16 1
    32   16   31 1
@<TRIPOS>MOLECULE
CHEMBL406820__2
   31    31     0     0     0
SMALL
USER_CHARGES

@<TRIPOS>ATOM
      1 C1         -0.0187    1.5272    0.0104 C.3       1 <0>        -0.1330
      2 C2          1.4216    2.0475   -0.0005 C.3       1 <0>        -0.1349
      3 C3          2.1755    1.4711    1.1999 C.3       1 <0>        -0.0055
      4 N1          2.1825    0.0055    1.1201 N.4       1 <0>        -0.4898
      5 C4          0.8086   -0.5044    1.2023 C.3       1 <0>        -0.0253
      6 C5          0.0021   -0.0041    0.0020 C.3       1 <0>        -0.1318
      7 C6          0.8319   -2.0342    1.1983 C.3       1 <0>        -0.0637
      8 C7          1.5271   -2.5370    2.4651 C.3       1 <0>        -1.2944
      9 P1          0.5389   -2.0736    3.9253 P.3       1 <0>         2.2029
     10 O1          0.4010   -0.5143    3.9891 O.2       1 <0>        -1.1750
     11 O2         -0.8844   -2.7197    3.8191 O.3       1 <0>        -1.1479
     12 O3          1.2507   -2.5884    5.2224 O.3       1 <0>        -1.1679
     13 P2          1.6875   -4.3514    2.3909 P.3       1 <0>         2.3008
     14 O4          0.2840   -4.9887    2.2862 O.2       1 <0>        -1.0934
     15 O5          2.5250   -4.7442    1.1534 O.3       1 <0>        -1.1390
     16 O6          2.4191   -4.8805    3.7240 O.3       1 <0>        -0.8842
     17 H1         -0.5268    1.8799    0.9079 H         1 <0>         0.0857
     18 H2         -0.5438    1.8894   -0.8733 H         1 <0>         0.0765
     19 H3          1.9136    1.7374   -0.9224 H         1 <0>         0.0733
     20 H4          1.4159    3.1357    0.0615 H         1 <0>         0.0960
     21 H5          3.2012    1.8398    1.1952 H         1 <0>         0.1109
     22 H6          1.6828    1.7820    2.1211 H         1 <0>         0.1381
     23 H7          2.5945   -0.2807    0.2446 H         1 <0>         0.3982
     24 H8          0.3450   -0.1514    2.1235 H         1 <0>         0.2052
     25 H9         -1.0182   -0.3823    0.0659 H         1 <0>         0.1054
     26 H10         0.4646   -0.3567   -0.9198 H         1 <0>         0.0666
     27 H11        -0.1897   -2.4131    1.1697 H         1 <0>         0.1085
     28 H12         1.3749   -2.3870    0.3215 H         1 <0>         0.0468
     29 H13         2.5173   -2.0874    2.5390 H         1 <0>         0.0508
     30 H14         2.5383   -5.8396    3.7529 H         1 <0>         0.3907
     31 H15         2.7255   -0.3693    1.8834 H         1 <0>         0.4293
@<TRIPOS>BOND
     1    1    6 1
     2    1    2 1
     3    1   17 1
     4    1   18 1
     5    2    3 1
     6    2   19 1
     7    2   20 1
     8    3    4 1
     9    3   21 1
    10    3   22 1
    11    4    5 1
    12    4   23 1
    13    4   31 1
    14    5    6 1
    15    5    7 1
    16    5   24 1
    17    6   25 1
    18    6   26 1
    19    7    8 1
    20    7   27 1
    21    7   28 1
    22    8    9 1
    23    8   13 1
    24    8   29 1
    25    9   10 2
    26    9   11 1
    27    9   12 1
    28   13   14 2
    29   13   15 1
    30   13   16 1
    31   16   30 1
@<TRIPOS>MOLECULE
CHEMBL406820__3
   32    32     0     0     0
SMALL
USER_CHARGES

@<TRIPOS>ATOM
      1 C1         -0.1889    1.5201    0.1260 C.3       1 <0>        -0.1347
      2 C2          1.2263    2.1048    0.1044 C.3       1 <0>        -0.1395
      3 C3          2.0283    1.5287    1.2733 C.3       1 <0>        -0.0070
      4 N1          2.0990    0.0678    1.1501 N.4       1 <0>        -0.4952
      5 C4          0.7509   -0.5056    1.2421 C.3       1 <0>        -0.0123
      6 C5         -0.1002   -0.0078    0.0719 C.3       1 <0>        -0.1347
      7 C6          0.8422   -2.0321    1.1924 C.3       1 <0>        -0.0846
      8 C7          1.6350   -2.5352    2.4004 C.3       1 <0>        -1.3045
      9 P1          0.6939   -2.2029    3.9260 P.3       1 <0>         2.2758
     10 O1          0.4556   -0.6826    4.0633 O.2       1 <0>        -1.1070
     11 O2         -0.6659   -2.9336    3.8617 O.3       1 <0>        -1.0842
     12 O3          1.5281   -2.7324    5.1972 O.3       1 <0>        -0.8811
     13 P2          1.9162   -4.3291    2.2384 P.3       1 <0>         2.2747
     14 O4          2.8098   -4.6012    1.0078 O.2       1 <0>        -1.1082
     15 O5          2.6163   -4.8575    3.5102 O.3       1 <0>        -1.0866
     16 O6          0.5037   -5.0790    2.0524 O.3       1 <0>        -0.8862
     17 H1         -0.6947    1.8236    1.0426 H         1 <0>         0.0860
     18 H2         -0.7467    1.8836   -0.7370 H         1 <0>         0.0841
     19 H3          1.7137    1.8439   -0.8350 H         1 <0>         0.0788
     20 H4          1.1735    3.1895    0.1987 H         1 <0>         0.1030
     21 H5          3.0364    1.9432    1.2610 H         1 <0>         0.1196
     22 H6          1.5403    1.7905    2.2122 H         1 <0>         0.1377
     23 H7          2.5062   -0.1742    0.2592 H         1 <0>         0.4097
     24 H8          0.2902   -0.2005    2.1816 H         1 <0>         0.1936
     25 H9         -1.1012   -0.4332    0.1431 H         1 <0>         0.1083
     26 H10         0.3596   -0.3126   -0.8682 H         1 <0>         0.0754
     27 H11        -0.1613   -2.4570    1.2138 H         1 <0>         0.1127
     28 H12         1.3460   -2.3362    0.2749 H         1 <0>         0.0729
     29 H13         2.5943   -2.0197    2.4457 H         1 <0>         0.0939
     30 H14         1.0864   -2.5882    6.0452 H         1 <0>         0.4061
     31 H15         0.5772   -6.0388    1.9598 H         1 <0>         0.4069
     32 H16         2.6729   -0.3039    1.8920 H         1 <0>         0.4267
@<TRIPOS>BOND
     1    1    6 1
     2    1    2 1
     3    1   17 1
     4    1   18 1
     5    2    3 1
     6    2   19 1
     7    2   20 1
     8    3    4 1
     9    3   21 1
    10    3   22 1
    11    4    5 1
    12    4   23 1
    13    4   32 1
    14    5    6 1
    15    5    7 1
    16    5   24 1
    17    6   25 1
    18    6   26 1
    19    7    8 1
    20    7   27 1
    21    7   28 1
    22    8    9 1
    23    8   13 1
    24    8   29 1
    25    9   10 2
    26    9   11 1
    27    9   12 1
    28   12   30 1
    29   13   14 2
    30   13   15 1
    31   13   16 1
    32   16   31 1
@<TRIPOS>MOLECULE
CHEMBL259729
   32    32     0     0     0
SMALL
USER_CHARGES

@<TRIPOS>ATOM
      1 C1          0.6155    1.6271   -0.9132 C.3       1 <0>        -0.1328
      2 C2          2.0983    1.9167   -1.1631 C.3       1 <0>        -0.1363
      3 C3          2.6161    0.9861   -2.2619 C.3       1 <0>        -0.0015
      4 N1          2.4528   -0.4109   -1.8421 N.4       1 <0>        -0.5016
      5 C4          1.0274   -0.7159   -1.6700 C.3       1 <0>        -0.0114
      6 C5          0.4486    0.1492   -0.5484 C.3       1 <0>        -0.1266
      7 C6          0.8627   -2.1938   -1.3101 C.3       1 <0>        -0.1086
      8 C7         -0.6246   -2.5525   -1.2957 C.3       1 <0>        -1.0230
      9 O1         -1.2717   -1.8583   -0.2274 O.3       1 <0>        -0.5089
     10 P1         -1.3818   -2.0683   -2.8818 P.3       1 <0>         2.1986
     11 O2         -1.3984   -0.5060   -2.9972 O.2       1 <0>        -1.1583
     12 O3         -0.5483   -2.6705   -4.0638 O.3       1 <0>        -1.1534
     13 O4         -2.8495   -2.6124   -2.9474 O.3       1 <0>        -1.1562
     14 P2         -0.8140   -4.3496   -1.0555 P.3       1 <0>         2.2774
     15 O5         -0.1145   -5.1002   -2.2106 O.2       1 <0>        -1.0926
     16 O6         -0.1723   -4.7600    0.2887 O.3       1 <0>        -1.1285
     17 O7         -2.3791   -4.7271   -1.0403 O.3       1 <0>        -0.8693
     18 H1          0.2561    2.2479   -0.0925 H         1 <0>         0.0698
     19 H2          0.0442    1.8467   -1.8151 H         1 <0>         0.0957
     20 H3          2.2188    2.9534   -1.4774 H         1 <0>         0.0928
     21 H4          2.6621    1.7460   -0.2460 H         1 <0>         0.0695
     22 H5          2.0518    1.1579   -3.1786 H         1 <0>         0.1309
     23 H6          3.6715    1.1898   -2.4425 H         1 <0>         0.1110
     24 H7          2.8437   -1.0201   -2.5451 H         1 <0>         0.4227
     25 H8          0.4970   -0.5079   -2.5993 H         1 <0>         0.1957
     26 H9          0.9781   -0.0583    0.3815 H         1 <0>         0.0457
     27 H10        -0.6102   -0.0776   -0.4234 H         1 <0>         0.1473
     28 H11         1.3772   -2.8074   -2.0496 H         1 <0>         0.0907
     29 H12         1.2903   -2.3776   -0.3245 H         1 <0>         0.0510
     30 H13        -0.9192   -2.0678    0.6484 H         1 <0>         0.3222
     31 H14        -2.5552   -5.6697   -0.9161 H         1 <0>         0.3884
     32 H15         2.9349   -0.5568   -0.9678 H         1 <0>         0.3995
@<TRIPOS>BOND
     1    1    6 1
     2    1    2 1
     3    1   18 1
     4    1   19 1
     5    2    3 1
     6    2   20 1
     7    2   21 1
     8    3    4 1
     9    3   22 1
    10    3   23 1
    11    4    5 1
    12    4   24 1
    13    4   32 1
    14    5    6 1
    15    5    7 1
    16    5   25 1
    17    6   26 1
    18    6   27 1
    19    7    8 1
    20    7   28 1
    21    7   29 1
    22    8    9 1
    23    8   10 1
    24    8   14 1
    25    9   30 1
    26   10   11 2
    27   10   12 1
    28   10   13 1
    29   14   15 2
    30   14   16 1
    31   14   17 1
    32   17   31 1
@<TRIPOS>MOLECULE
CHEMBL259729__1
   33    33     0     0     0
SMALL
USER_CHARGES

@<TRIPOS>ATOM
      1 C1          0.0481    1.5336    0.0438 C.3       1 <0>        -0.1333
      2 C2          1.4756    2.0706   -0.0938 C.3       1 <0>        -0.1401
      3 C3          2.1076    1.5036   -1.3668 C.3       1 <0>        -0.0046
      4 N1          2.1398    0.0381   -1.2906 N.4       1 <0>        -0.4863
      5 C4          0.7707   -0.4877   -1.2308 C.3       1 <0>        -0.0068
      6 C5          0.0873    0.0027    0.0475 C.3       1 <0>        -0.1366
      7 C6          0.8119   -2.0171   -1.2318 C.3       1 <0>        -0.1289
      8 C7          1.3654   -2.5115   -2.5698 C.3       1 <0>        -1.0506
      9 O1          2.7326   -2.1155   -2.6952 O.3       1 <0>        -0.5156
     10 P1          1.2503   -4.3295   -2.6405 P.3       1 <0>         2.2326
     11 O2          1.8091   -4.8288   -3.9916 O.2       1 <0>        -1.0635
     12 O3          2.0723   -4.9429   -1.4849 O.3       1 <0>        -1.0912
     13 O4         -0.2902   -4.7757   -2.4991 O.3       1 <0>        -0.8842
     14 P2          0.3955   -1.7878   -3.9332 P.3       1 <0>         2.2836
     15 O5         -1.1008   -2.1153   -3.7313 O.2       1 <0>        -1.0772
     16 O6          0.5900   -0.2551   -3.9466 O.3       1 <0>        -1.0985
     17 O7          0.8956   -2.4045   -5.3338 O.3       1 <0>        -0.8747
     18 H1         -0.3867    1.8893    0.9779 H         1 <0>         0.0819
     19 H2         -0.5544    1.8808   -0.7956 H         1 <0>         0.0860
     20 H3          1.4510    3.1587   -0.1531 H         1 <0>         0.1005
     21 H4          2.0641    1.7659    0.7716 H         1 <0>         0.0754
     22 H5          1.5185    1.8092   -2.2315 H         1 <0>         0.1420
     23 H6          3.1240    1.8842   -1.4679 H         1 <0>         0.1152
     24 H7          2.6050   -0.3299   -2.1068 H         1 <0>         0.4343
     25 H8          0.2101   -0.1397   -2.0984 H         1 <0>         0.1900
     26 H9          0.6470   -0.3450    0.9158 H         1 <0>         0.0727
     27 H10        -0.9297   -0.3873    0.0891 H         1 <0>         0.1052
     28 H11         1.4545   -2.3638   -0.4224 H         1 <0>         0.0800
     29 H12        -0.1955   -2.4079   -1.0886 H         1 <0>         0.1175
     30 H13         3.3086   -2.4651   -2.0016 H         1 <0>         0.3607
     31 H14        -0.4268   -5.7325   -2.5283 H         1 <0>         0.4106
     32 H15         0.4223   -2.0635   -6.1051 H         1 <0>         0.4063
     33 H16         2.6436   -0.2436   -0.4631 H         1 <0>         0.3977
@<TRIPOS>BOND
     1    1    6 1
     2    1    2 1
     3    1   18 1
     4    1   19 1
     5    2    3 1
     6    2   20 1
     7    2   21 1
     8    3    4 1
     9    3   22 1
    10    3   23 1
    11    4    5 1
    12    4   24 1
    13    4   33 1
    14    5    6 1
    15    5    7 1
    16    5   25 1
    17    6   26 1
    18    6   27 1
    19    7    8 1
    20    7   28 1
    21    7   29 1
    22    8    9 1
    23    8   10 1
    24    8   14 1
    25    9   30 1
    26   10   11 2
    27   10   12 1
    28   10   13 1
    29   13   31 1
    30   14   15 2
    31   14   16 1
    32   14   17 1
    33   17   32 1
@<TRIPOS>MOLECULE
CHEMBL259729__2
   32    32     0     0     0
SMALL
USER_CHARGES

@<TRIPOS>ATOM
      1 C1         -0.5881    1.4448    0.3627 C.3       1 <0>        -0.1315
      2 C2          0.7538    2.1822    0.3855 C.3       1 <0>        -0.1358
      3 C3          1.6179    1.6227    1.5176 C.3       1 <0>        -0.0032
      4 N1          1.8491    0.1897    1.2991 N.4       1 <0>        -0.4800
      5 C4          0.5728   -0.5337    1.3476 C.3       1 <0>        -0.0085
      6 C5         -0.3315   -0.0571    0.2089 C.3       1 <0>        -0.1348
      7 C6          0.8319   -2.0342    1.1983 C.3       1 <0>        -0.1102
      8 C7          1.6350   -2.5352    2.4004 C.3       1 <0>        -1.0449
      9 O1          2.9365   -1.9454    2.3830 O.3       1 <0>        -0.5256
     10 P1          0.7776   -2.0700    3.9405 P.3       1 <0>         2.1946
     11 O2          0.7581   -0.5093    4.0764 O.2       1 <0>        -1.1666
     12 O3         -0.6928   -2.6093    3.9030 O.3       1 <0>        -1.1415
     13 O4          1.5307   -2.6915    5.1656 O.3       1 <0>        -1.1519
     14 P2          1.7889   -4.3497    2.3149 P.3       1 <0>         2.2769
     15 O5          0.3817   -4.9873    2.3337 O.2       1 <0>        -1.0862
     16 O6          2.5155   -4.7439    1.0096 O.3       1 <0>        -1.1257
     17 O7          2.6339   -4.8768    3.5798 O.3       1 <0>        -0.8716
     18 H1         -1.1216    1.6298    1.2951 H         1 <0>         0.0853
     19 H2         -1.1853    1.8004   -0.4770 H         1 <0>         0.0744
     20 H3          1.2642    2.0388   -0.5669 H         1 <0>         0.0699
     21 H4          0.5818    3.2459    0.5505 H         1 <0>         0.0935
     22 H5          2.5741    2.1457    1.5368 H         1 <0>         0.1066
     23 H6          1.1068    1.7668    2.4695 H         1 <0>         0.1430
     24 H7          2.2779    0.0531    0.3961 H         1 <0>         0.3862
     25 H8          0.0840   -0.3436    2.3031 H         1 <0>         0.1964
     26 H9         -1.2792   -0.5942    0.2477 H         1 <0>         0.1023
     27 H10         0.1563   -0.2470   -0.7471 H         1 <0>         0.0644
     28 H11        -0.1194   -2.5642    1.1505 H         1 <0>         0.1167
     29 H12         1.3956   -2.2163    0.2834 H         1 <0>         0.0528
     30 H13         3.4509   -2.1511    1.5904 H         1 <0>         0.3273
     31 H14         2.7555   -5.8359    3.5995 H         1 <0>         0.3903
     32 H15         2.4627   -0.1643    2.0176 H         1 <0>         0.4374
@<TRIPOS>BOND
     1    1    6 1
     2    1    2 1
     3    1   18 1
     4    1   19 1
     5    2    3 1
     6    2   20 1
     7    2   21 1
     8    3    4 1
     9    3   22 1
    10    3   23 1
    11    4    5 1
    12    4   24 1
    13    4   32 1
    14    5    6 1
    15    5    7 1
    16    5   25 1
    17    6   26 1
    18    6   27 1
    19    7    8 1
    20    7   28 1
    21    7   29 1
    22    8    9 1
    23    8   10 1
    24    8   14 1
    25    9   30 1
    26   10   11 2
    27   10   12 1
    28   10   13 1
    29   14   15 2
    30   14   16 1
    31   14   17 1
    32   17   31 1
@<TRIPOS>MOLECULE
CHEMBL259729__3
   33    33     0     0     0
SMALL
USER_CHARGES

@<TRIPOS>ATOM
      1 C1         -0.1038    1.5473    0.1358 C.3       1 <0>        -0.1338
      2 C2          1.3321    2.0657    0.0156 C.3       1 <0>        -0.1406
      3 C3          2.1795    1.4703    1.1421 C.3       1 <0>        -0.0026
      4 N1          2.1762    0.0060    1.0401 N.4       1 <0>        -0.5028
      5 C4          0.8122   -0.5031    1.2261 C.3       1 <0>        -0.0113
      6 C5         -0.0878    0.0164    0.1029 C.3       1 <0>        -0.1324
      7 C6          0.8311   -2.0328    1.1974 C.3       1 <0>        -0.1290
      8 C7         -0.5630   -2.5664    1.5327 C.3       1 <0>        -1.0243
      9 O1         -1.4752   -2.2010    0.4953 O.3       1 <0>        -0.4977
     10 P1         -0.5004   -4.3828    1.6749 P.3       1 <0>         2.2262
     11 O2         -1.9082   -4.9217    2.0136 O.2       1 <0>        -1.0639
     12 O3         -0.0258   -4.9882    0.3350 O.3       1 <0>        -1.0923
     13 O4          0.5274   -4.7945    2.8438 O.3       1 <0>        -0.8855
     14 P2         -1.1230   -1.8521    3.1137 P.3       1 <0>         2.2825
     15 O5         -0.0738   -2.1421    4.2102 O.2       1 <0>        -1.0869
     16 O6         -1.2951   -0.3248    2.9566 O.3       1 <0>        -1.0895
     17 O7         -2.5316   -2.5108    3.5312 O.3       1 <0>        -0.8746
     18 H1         -0.5365    1.8872    1.0768 H         1 <0>         0.0944
     19 H2         -0.6981    1.9236   -0.6969 H         1 <0>         0.0772
     20 H3          1.7468    1.7689   -0.9477 H         1 <0>         0.0748
     21 H4          1.3344    3.1529    0.0942 H         1 <0>         0.0995
     22 H5          3.2025    1.8375    1.0596 H         1 <0>         0.1186
     23 H6          1.7641    1.7679    2.1048 H         1 <0>         0.1320
     24 H7          2.5150   -0.2675    0.1298 H         1 <0>         0.4082
     25 H8          0.4259   -0.1634    2.1871 H         1 <0>         0.1921
     26 H9         -1.1005   -0.3613    0.2438 H         1 <0>         0.1447
     27 H10         0.2974   -0.3230   -0.8586 H         1 <0>         0.0567
     28 H11         1.1214   -2.3739    0.2037 H         1 <0>         0.0779
     29 H12         1.5475   -2.4011    1.9317 H         1 <0>         0.0903
     30 H13        -1.2391   -2.5474   -0.3761 H         1 <0>         0.3558
     31 H14         0.6113   -5.7488    2.9756 H         1 <0>         0.4092
     32 H15        -2.8902   -2.1768    4.3648 H         1 <0>         0.4043
     33 H16         2.7785   -0.3810    1.7511 H         1 <0>         0.4230
@<TRIPOS>BOND
     1    1    6 1
     2    1    2 1
     3    1   18 1
     4    1   19 1
     5    2    3 1
     6    2   20 1
     7    2   21 1
     8    3    4 1
     9    3   22 1
    10    3   23 1
    11    4    5 1
    12    4   24 1
    13    4   33 1
    14    5    6 1
    15    5    7 1
    16    5   25 1
    17    6   26 1
    18    6   27 1
    19    7    8 1
    20    7   28 1
    21    7   29 1
    22    8    9 1
    23    8   10 1
    24    8   14 1
    25    9   30 1
    26   10   11 2
    27   10   12 1
    28   10   13 1
    29   13   31 1
    30   14   15 2
    31   14   16 1
    32   14   17 1
    33   17   32 1
@<TRIPOS>MOLECULE
CHEMBL55214
   31    30     0     0     0
SMALL
USER_CHARGES

@<TRIPOS>ATOM
      1 C1         -0.0187    1.5258    0.0104 C.3       1 <0>        -0.1131
      2 C2          0.0021   -0.0041    0.0020 C.3       1 <0>        -0.1421
      3 C3         -1.4333   -0.5336    0.0129 C.3       1 <0>        -0.0847
      4 C4         -1.4126   -2.0635    0.0045 C.3       1 <0>        -1.0348
      5 O1         -0.7437   -2.5243   -1.1712 O.3       1 <0>        -0.5176
      6 P1         -0.5309   -2.6674    1.4814 P.3       1 <0>         2.2233
      7 O2          0.9723   -2.2321    1.4066 O.2       1 <0>        -1.1812
      8 O3         -1.1875   -2.0586    2.7669 O.3       1 <0>        -1.1633
      9 O4         -0.6196   -4.2304    1.5398 O.3       1 <0>        -1.1734
     10 P2         -3.1228   -2.6945    0.0174 P.3       1 <0>         2.2726
     11 O5         -3.8460   -2.1962    1.2886 O.2       1 <0>        -1.0962
     12 O6         -3.8701   -2.1827   -1.2343 O.3       1 <0>        -1.1351
     13 O7         -3.1010   -4.3043    0.0085 O.3       1 <0>        -0.8701
     14 C5          1.4167    2.0553   -0.0004 C.3       1 <0>        -0.1482
     15 C6          1.3960    3.5852    0.0080 C.3       1 <0>        -0.0097
     16 N1          2.7741    4.0937   -0.0024 N.4       1 <0>        -0.6362
     17 H1         -0.5459    1.8868   -0.8726 H         1 <0>         0.0512
     18 H2         -0.5289    1.8773    0.9072 H         1 <0>         0.0671
     19 H3          0.5123   -0.3556   -0.8948 H         1 <0>         0.0467
     20 H4          0.5293   -0.3651    0.8851 H         1 <0>         0.1289
     21 H5         -1.9435   -0.1821    0.9097 H         1 <0>         0.0698
     22 H6         -1.9605   -0.1726   -0.8702 H         1 <0>         0.0243
     23 H7         -1.1590   -2.2401   -1.9970 H         1 <0>         0.3122
     24 H8         -3.9789   -4.7096    0.0147 H         1 <0>         0.3832
     25 H9          1.9439    1.6943    0.8826 H         1 <0>         0.0942
     26 H10         1.9269    1.7038   -0.8972 H         1 <0>         0.0806
     27 H11         0.8688    3.9463   -0.8751 H         1 <0>         0.1271
     28 H12         0.8858    3.9367    0.9048 H         1 <0>         0.1324
     29 H13         3.2464    3.7683   -0.8326 H         1 <0>         0.4311
     30 H14         2.7604    5.1025    0.0031 H         1 <0>         0.4259
     31 H15         3.2621    3.7594    0.8150 H         1 <0>         0.4350
@<TRIPOS>BOND
     1    1    2 1
     2    1   14 1
     3    1   17 1
     4    1   18 1
     5    2    3 1
     6    2   19 1
     7    2   20 1
     8    3    4 1
     9    3   21 1
    10    3   22 1
    11    4    5 1
    12    4    6 1
    13    4   10 1
    14    5   23 1
    15    6    7 2
    16    6    8 1
    17    6    9 1
    18   10   11 2
    19   10   12 1
    20   10   13 1
    21   13   24 1
    22   14   15 1
    23   14   25 1
    24   14   26 1
    25   15   16 1
    26   15   27 1
    27   15   28 1
    28   16   29 1
    29   16   30 1
    30   16   31 1
@<TRIPOS>MOLECULE
CHEMBL55214__1
   32    31     0     0     0
SMALL
USER_CHARGES

@<TRIPOS>ATOM
      1 C1         -0.0187    1.5258    0.0104 C.3       1 <0>        -0.1149
      2 C2          0.0021   -0.0041    0.0020 C.3       1 <0>        -0.1535
      3 C3         -1.4333   -0.5336    0.0129 C.3       1 <0>        -0.1039
      4 C4         -1.4126   -2.0635    0.0045 C.3       1 <0>        -1.0380
      5 O1         -0.7437   -2.5243   -1.1712 O.3       1 <0>        -0.5071
      6 P1         -0.5309   -2.6674    1.4814 P.3       1 <0>         2.2858
      7 O2         -0.5099   -4.2122    1.4729 O.2       1 <0>        -1.0876
      8 O3          0.9186   -2.1326    1.4704 O.3       1 <0>        -1.0965
      9 O4         -1.2844   -2.1481    2.8060 O.3       1 <0>        -0.8865
     10 P2         -3.1228   -2.6945    0.0174 P.3       1 <0>         2.2434
     11 O5         -3.8460   -2.1962    1.2886 O.2       1 <0>        -1.0861
     12 O6         -3.8701   -2.1827   -1.2343 O.3       1 <0>        -1.1052
     13 O7         -3.1010   -4.3043    0.0085 O.3       1 <0>        -0.8748
     14 C5          1.4167    2.0553   -0.0004 C.3       1 <0>        -0.1491
     15 C6          1.3960    3.5852    0.0080 C.3       1 <0>        -0.0100
     16 N1          2.7741    4.0937   -0.0024 N.4       1 <0>        -0.6368
     17 H1         -0.5459    1.8868   -0.8726 H         1 <0>         0.0593
     18 H2         -0.5289    1.8773    0.9072 H         1 <0>         0.0675
     19 H3          0.5123   -0.3556   -0.8948 H         1 <0>         0.0597
     20 H4          0.5293   -0.3651    0.8851 H         1 <0>         0.1264
     21 H5         -1.9435   -0.1821    0.9097 H         1 <0>         0.0693
     22 H6         -1.9605   -0.1726   -0.8702 H         1 <0>         0.0529
     23 H7         -1.1590   -2.2401   -1.9970 H         1 <0>         0.3455
     24 H8         -0.8692   -2.4324    3.6317 H         1 <0>         0.4030
     25 H9         -3.9789   -4.7096    0.0147 H         1 <0>         0.3997
     26 H10         1.9439    1.6943    0.8826 H         1 <0>         0.0930
     27 H11         1.9269    1.7038   -0.8972 H         1 <0>         0.0841
     28 H12         0.8688    3.9463   -0.8751 H         1 <0>         0.1296
     29 H13         0.8858    3.9367    0.9048 H         1 <0>         0.1324
     30 H14         3.2621    3.7594    0.8150 H         1 <0>         0.4350
     31 H15         3.2464    3.7683   -0.8326 H         1 <0>         0.4331
     32 H16         2.7604    5.1025    0.0031 H         1 <0>         0.4304
@<TRIPOS>BOND
     1    1    2 1
     2    1   14 1
     3    1   17 1
     4    1   18 1
     5    2    3 1
     6    2   19 1
     7    2   20 1
     8    3    4 1
     9    3   21 1
    10    3   22 1
    11    4    5 1
    12    4    6 1
    13    4   10 1
    14    5   23 1
    15    6    7 2
    16    6    8 1
    17    6    9 1
    18    9   24 1
    19   10   11 2
    20   10   12 1
    21   10   13 1
    22   13   25 1
    23   14   15 1
    24   14   26 1
    25   14   27 1
    26   15   16 1
    27   15   28 1
    28   15   29 1
    29   16   30 1
    30   16   31 1
    31   16   32 1
@<TRIPOS>MOLECULE
CHEMBL298771
   28    27     0     0     0
SMALL
USER_CHARGES

@<TRIPOS>ATOM
      1 C1         -0.0187    1.5258    0.0104 C.3       1 <0>        -0.1416
      2 C2          0.0021   -0.0041    0.0020 C.3       1 <0>        -0.1456
      3 C3         -1.4333   -0.5336    0.0129 C.3       1 <0>        -0.0091
      4 N1         -1.4134   -2.0025    0.0048 N.4       1 <0>        -0.6357
      5 C4          1.4167    2.0553   -0.0004 C.3       1 <0>        -0.0842
      6 C5          1.3960    3.5852    0.0080 C.3       1 <0>        -1.0350
      7 O1          0.7048    4.0586   -1.1497 O.3       1 <0>        -0.5168
      8 P1          0.5427    4.1731    1.5079 P.3       1 <0>         2.2192
      9 O2         -0.9616    3.7385    1.4571 O.2       1 <0>        -1.1793
     10 O3          1.2237    3.5506    2.7740 O.3       1 <0>        -1.1614
     11 O4          0.6327    5.7354    1.5814 O.3       1 <0>        -1.1707
     12 P2          3.1062    4.2162   -0.0050 P.3       1 <0>         2.2738
     13 O5          3.8535    3.7044    1.2467 O.2       1 <0>        -1.0957
     14 O6          3.8294    3.7179   -1.2761 O.3       1 <0>        -1.1345
     15 O7          3.0844    5.8260    0.0039 O.3       1 <0>        -0.8702
     16 H1         -0.5459    1.8868   -0.8726 H         1 <0>         0.0557
     17 H2         -0.5289    1.8773    0.9072 H         1 <0>         0.1356
     18 H3          0.5123   -0.3556   -0.8948 H         1 <0>         0.0654
     19 H4          0.5293   -0.3651    0.8851 H         1 <0>         0.0809
     20 H5         -1.9435   -0.1821    0.9097 H         1 <0>         0.1413
     21 H6         -1.9605   -0.1726   -0.8702 H         1 <0>         0.1285
     22 H7         -0.9411   -2.3279   -0.8254 H         1 <0>         0.4262
     23 H8         -0.9254   -2.3367    0.8222 H         1 <0>         0.4313
     24 H9          1.9439    1.6943    0.8826 H         1 <0>         0.0725
     25 H10         1.9269    1.7038   -0.8972 H         1 <0>         0.0272
     26 H11         1.1042    3.7832   -1.9862 H         1 <0>         0.3132
     27 H12         3.9623    6.2313   -0.0023 H         1 <0>         0.3844
     28 H13        -2.3600   -2.3517    0.0120 H         1 <0>         0.4247
@<TRIPOS>BOND
     1    1    2 1
     2    1    5 1
     3    1   16 1
     4    1   17 1
     5    2    3 1
     6    2   18 1
     7    2   19 1
     8    3    4 1
     9    3   20 1
    10    3   21 1
    11    4   22 1
    12    4   23 1
    13    4   28 1
    14    5    6 1
    15    5   24 1
    16    5   25 1
    17    6    7 1
    18    6    8 1
    19    6   12 1
    20    7   26 1
    21    8    9 2
    22    8   10 1
    23    8   11 1
    24   12   13 2
    25   12   14 1
    26   12   15 1
    27   15   27 1
@<TRIPOS>MOLECULE
CHEMBL298771__1
   29    28     0     0     0
SMALL
USER_CHARGES

@<TRIPOS>ATOM
      1 C1         -0.0187    1.5258    0.0104 C.3       1 <0>        -0.1530
      2 C2          0.0021   -0.0041    0.0020 C.3       1 <0>        -0.1479
      3 C3         -1.4333   -0.5336    0.0129 C.3       1 <0>        -0.0087
      4 N1         -1.4134   -2.0025    0.0048 N.4       1 <0>        -0.6368
      5 C4          1.4167    2.0553   -0.0004 C.3       1 <0>        -0.1036
      6 C5          1.3960    3.5852    0.0080 C.3       1 <0>        -1.0383
      7 O1          0.7048    4.0586   -1.1497 O.3       1 <0>        -0.5063
      8 P1          0.5427    4.1731    1.5079 P.3       1 <0>         2.2836
      9 O2          0.5217    5.7179    1.5164 O.2       1 <0>        -1.0851
     10 O3         -0.9068    3.6383    1.5188 O.3       1 <0>        -1.0952
     11 O4          1.3214    3.6397    2.8122 O.3       1 <0>        -0.8869
     12 P2          3.1062    4.2162   -0.0050 P.3       1 <0>         2.2440
     13 O5          3.8535    3.7044    1.2467 O.2       1 <0>        -1.0854
     14 O6          3.8294    3.7179   -1.2761 O.3       1 <0>        -1.1045
     15 O7          3.0844    5.8260    0.0039 O.3       1 <0>        -0.8747
     16 H1         -0.5459    1.8868   -0.8726 H         1 <0>         0.0685
     17 H2         -0.5289    1.8773    0.9072 H         1 <0>         0.1331
     18 H3          0.5123   -0.3556   -0.8948 H         1 <0>         0.0734
     19 H4          0.5293   -0.3651    0.8851 H         1 <0>         0.0813
     20 H5         -1.9435   -0.1821    0.9097 H         1 <0>         0.1399
     21 H6         -1.9605   -0.1726   -0.8702 H         1 <0>         0.1315
     22 H7         -0.9411   -2.3279   -0.8254 H         1 <0>         0.4299
     23 H8         -0.9254   -2.3367    0.8222 H         1 <0>         0.4321
     24 H9          1.9439    1.6943    0.8826 H         1 <0>         0.0720
     25 H10         1.9269    1.7038   -0.8972 H         1 <0>         0.0556
     26 H11         1.1042    3.7832   -1.9862 H         1 <0>         0.3464
     27 H12         0.9220    3.9151    3.6487 H         1 <0>         0.4044
     28 H13         3.9623    6.2313   -0.0023 H         1 <0>         0.4008
     29 H14        -2.3600   -2.3517    0.0120 H         1 <0>         0.4300
@<TRIPOS>BOND
     1    1    2 1
     2    1    5 1
     3    1   16 1
     4    1   17 1
     5    2    3 1
     6    2   18 1
     7    2   19 1
     8    3    4 1
     9    3   20 1
    10    3   21 1
    11    4   22 1
    12    4   23 1
    13    4   29 1
    14    5    6 1
    15    5   24 1
    16    5   25 1
    17    6    7 1
    18    6    8 1
    19    6   12 1
    20    7   26 1
    21    8    9 2
    22    8   10 1
    23    8   11 1
    24   11   27 1
    25   12   13 2
    26   12   14 1
    27   12   15 1
    28   15   28 1
@<TRIPOS>MOLECULE
CHEMBL54537
   44    44     0     0     0
SMALL
USER_CHARGES

@<TRIPOS>ATOM
      1 C1         -0.0178    1.4648    0.0101 C.3       1 <0>        -0.0530
      2 N1          0.0021   -0.0041    0.0020 N.4       1 <0>        -0.3825
      3 C2         -1.3761   -0.5125    0.0124 C.3       1 <0>        -0.0069
      4 C3         -2.0780   -0.1101   -1.2861 C.3       1 <0>        -0.1406
      5 C4         -3.5134   -0.6397   -1.2753 C.3       1 <0>        -0.0786
      6 C5         -4.2047   -0.2433   -2.5543 C.ar      1 <0>        -0.0825
      7 C6         -4.8877    0.9563   -2.6277 C.ar      1 <0>        -0.1172
      8 C7         -5.5219    1.3199   -3.8010 C.ar      1 <0>        -0.1204
      9 C8         -5.4727    0.4841   -4.9009 C.ar      1 <0>        -0.1249
     10 C9         -4.7890   -0.7151   -4.8278 C.ar      1 <0>        -0.1177
     11 C10        -4.1512   -1.0767   -3.6559 C.ar      1 <0>        -0.1138
     12 C11         0.7126   -0.4907    1.1921 C.3       1 <0>        -0.0341
     13 C12         2.1805   -0.0656    1.1191 C.3       1 <0>        -0.1136
     14 C13         2.9205   -0.5724    2.3586 C.3       1 <0>        -1.0248
     15 O1          2.3215   -0.0171    3.5312 O.3       1 <0>        -0.5140
     16 P1          2.8172   -2.3912    2.4267 P.3       1 <0>         2.1982
     17 O2          1.3248   -2.8223    2.6298 O.2       1 <0>        -1.1669
     18 O3          3.3575   -2.9955    1.0860 O.3       1 <0>        -1.1493
     19 O4          3.6806   -2.9189    3.6227 O.3       1 <0>        -1.1566
     20 P2          4.6695   -0.0659    2.2717 P.3       1 <0>         2.2763
     21 O5          5.3171   -0.6663    1.0039 O.2       1 <0>        -1.0900
     22 O6          4.7571    1.4755    2.2140 O.3       1 <0>        -1.1288
     23 O7          5.4482   -0.5992    3.5760 O.3       1 <0>        -0.8701
     24 H1          1.0047    1.8421    0.0024 H         1 <0>         0.1237
     25 H2         -0.5450    1.8259   -0.8730 H         1 <0>         0.1070
     26 H3         -0.5280    1.8163    0.9069 H         1 <0>         0.1106
     27 H4         -1.3618   -1.5992    0.0960 H         1 <0>         0.1352
     28 H5         -1.9129   -0.0898    0.8617 H         1 <0>         0.1201
     29 H6         -2.0923    0.9766   -1.3697 H         1 <0>         0.0814
     30 H7         -1.5412   -0.5328   -2.1354 H         1 <0>         0.0860
     31 H8         -3.4991   -1.7264   -1.1917 H         1 <0>         0.0867
     32 H9         -4.0502   -0.2170   -0.4260 H         1 <0>         0.0811
     33 H10        -4.9262    1.6093   -1.7684 H         1 <0>         0.1212
     34 H11        -6.0561    2.2568   -3.8581 H         1 <0>         0.1204
     35 H12        -5.9688    0.7678   -5.8174 H         1 <0>         0.1198
     36 H13        -4.7508   -1.3682   -5.6871 H         1 <0>         0.1224
     37 H14        -3.6138   -2.0119   -3.5999 H         1 <0>         0.1260
     38 H15         0.2557   -0.0671    2.0865 H         1 <0>         0.1139
     39 H16         0.6508   -1.5782    1.2328 H         1 <0>         0.1837
     40 H17         2.6374   -0.4891    0.2247 H         1 <0>         0.0931
     41 H18         2.2422    1.0219    1.0785 H         1 <0>         0.0523
     42 H19         2.3407    0.9492    3.5627 H         1 <0>         0.3193
     43 H20         6.3864   -0.3657    3.5969 H         1 <0>         0.3887
     44 H21         0.4744   -0.3295   -0.8281 H         1 <0>         0.4193
@<TRIPOS>BOND
     1    1    2 1
     2    1   24 1
     3    1   25 1
     4    1   26 1
     5    2    3 1
     6    2   12 1
     7    2   44 1
     8    3    4 1
     9    3   27 1
    10    3   28 1
    11    4    5 1
    12    4   29 1
    13    4   30 1
    14    5    6 1
    15    5   31 1
    16    5   32 1
    17    6   11 ar
    18    6    7 ar
    19    7    8 ar
    20    7   33 1
    21    8    9 ar
    22    8   34 1
    23    9   10 ar
    24    9   35 1
    25   10   11 ar
    26   10   36 1
    27   11   37 1
    28   12   13 1
    29   12   38 1
    30   12   39 1
    31   13   14 1
    32   13   40 1
    33   13   41 1
    34   14   15 1
    35   14   16 1
    36   14   20 1
    37   15   42 1
    38   16   17 2
    39   16   18 1
    40   16   19 1
    41   20   21 2
    42   20   22 1
    43   20   23 1
    44   23   43 1
@<TRIPOS>MOLECULE
CHEMBL54537__1
   45    45     0     0     0
SMALL
USER_CHARGES

@<TRIPOS>ATOM
      1 C1         -0.0178    1.4648    0.0101 C.3       1 <0>        -0.0554
      2 N1          0.0021   -0.0041    0.0020 N.4       1 <0>        -0.3821
      3 C2         -1.3761   -0.5125    0.0124 C.3       1 <0>        -0.0076
      4 C3         -2.0780   -0.1101   -1.2861 C.3       1 <0>        -0.1417
      5 C4         -3.5134   -0.6397   -1.2753 C.3       1 <0>        -0.0765
      6 C5         -4.2047   -0.2433   -2.5543 C.ar      1 <0>        -0.0888
      7 C6         -4.8877    0.9563   -2.6277 C.ar      1 <0>        -0.1152
      8 C7         -5.5219    1.3199   -3.8010 C.ar      1 <0>        -0.1174
      9 C8         -5.4727    0.4841   -4.9009 C.ar      1 <0>        -0.1208
     10 C9         -4.7890   -0.7151   -4.8278 C.ar      1 <0>        -0.1180
     11 C10        -4.1512   -1.0767   -3.6559 C.ar      1 <0>        -0.1161
     12 C11         0.7126   -0.4907    1.1921 C.3       1 <0>        -0.0439
     13 C12         2.1805   -0.0656    1.1191 C.3       1 <0>        -0.1345
     14 C13         2.9205   -0.5724    2.3586 C.3       1 <0>        -1.0268
     15 O1          2.8396   -1.9981    2.4120 O.3       1 <0>        -0.5040
     16 P1          4.6695   -0.0659    2.2717 P.3       1 <0>         2.2286
     17 O2          5.4168   -0.5777    3.5233 O.2       1 <0>        -1.0666
     18 O3          5.3171   -0.6663    1.0039 O.3       1 <0>        -1.0935
     19 O4          4.7607    1.5404    2.2116 O.3       1 <0>        -0.8826
     20 P2          2.1564    0.1360    3.8545 P.3       1 <0>         2.2858
     21 O5          2.2439    1.6774    3.7969 O.2       1 <0>        -1.0828
     22 O6          0.6741   -0.2933    3.9282 O.3       1 <0>        -1.0968
     23 O7          2.9351   -0.3974    5.1589 O.3       1 <0>        -0.8757
     24 H1          1.0047    1.8421    0.0024 H         1 <0>         0.1244
     25 H2         -0.5450    1.8259   -0.8730 H         1 <0>         0.1142
     26 H3         -0.5280    1.8163    0.9069 H         1 <0>         0.1285
     27 H4         -1.3618   -1.5992    0.0960 H         1 <0>         0.1246
     28 H5         -1.9129   -0.0898    0.8617 H         1 <0>         0.1332
     29 H6         -2.0923    0.9766   -1.3697 H         1 <0>         0.0876
     30 H7         -1.5412   -0.5328   -2.1354 H         1 <0>         0.0826
     31 H8         -3.4991   -1.7264   -1.1917 H         1 <0>         0.0822
     32 H9         -4.0502   -0.2170   -0.4260 H         1 <0>         0.0848
     33 H10        -4.9262    1.6093   -1.7684 H         1 <0>         0.1236
     34 H11        -6.0561    2.2568   -3.8581 H         1 <0>         0.1234
     35 H12        -5.9688    0.7678   -5.8174 H         1 <0>         0.1222
     36 H13        -4.7508   -1.3682   -5.6871 H         1 <0>         0.1228
     37 H14        -3.6138   -2.0119   -3.5999 H         1 <0>         0.1218
     38 H15         0.2557   -0.0671    2.0865 H         1 <0>         0.1878
     39 H16         0.6508   -1.5782    1.2328 H         1 <0>         0.1229
     40 H17         2.6374   -0.4891    0.2247 H         1 <0>         0.0758
     41 H18         2.2422    1.0219    1.0785 H         1 <0>         0.0938
     42 H19         3.2277   -2.4430    1.6461 H         1 <0>         0.3545
     43 H20         5.6643    1.8815    2.1638 H         1 <0>         0.4084
     44 H21         2.5815   -0.0601    5.9933 H         1 <0>         0.4043
     45 H22         0.4744   -0.3295   -0.8281 H         1 <0>         0.4088
@<TRIPOS>BOND
     1    1    2 1
     2    1   24 1
     3    1   25 1
     4    1   26 1
     5    2    3 1
     6    2   12 1
     7    2   45 1
     8    3    4 1
     9    3   27 1
    10    3   28 1
    11    4    5 1
    12    4   29 1
    13    4   30 1
    14    5    6 1
    15    5   31 1
    16    5   32 1
    17    6   11 ar
    18    6    7 ar
    19    7    8 ar
    20    7   33 1
    21    8    9 ar
    22    8   34 1
    23    9   10 ar
    24    9   35 1
    25   10   11 ar
    26   10   36 1
    27   11   37 1
    28   12   13 1
    29   12   38 1
    30   12   39 1
    31   13   14 1
    32   13   40 1
    33   13   41 1
    34   14   15 1
    35   14   16 1
    36   14   20 1
    37   15   42 1
    38   16   17 2
    39   16   18 1
    40   16   19 1
    41   19   43 1
    42   20   21 2
    43   20   22 1
    44   20   23 1
    45   23   44 1
@<TRIPOS>MOLECULE
CHEMBL55608
   27    26     0     0     0
SMALL
USER_CHARGES

@<TRIPOS>ATOM
      1 C1         -1.0006    1.8474    0.7665 C.3       1 <0>        -0.1484
      2 C2         -0.7322    0.3439    0.6740 C.3       1 <0>        -0.1202
      3 C3         -2.0497   -0.3954    0.4319 C.3       1 <0>        -0.1433
      4 C4         -1.7813   -1.8988    0.3395 C.3       1 <0>        -0.0328
      5 N1         -3.0462   -2.6087    0.1070 N.4       1 <0>        -0.4306
      6 C5         -2.7738   -4.0352   -0.1138 C.3       1 <0>        -1.1467
      7 P1         -2.1153   -4.7724    1.4179 P.3       1 <0>         2.1288
      8 O1         -0.7093   -4.1565    1.7315 O.2       1 <0>        -1.1454
      9 O2         -3.0934   -4.4720    2.6044 O.3       1 <0>        -1.1217
     10 O3         -1.9775   -6.3222    1.2343 O.3       1 <0>        -1.1259
     11 P2         -4.3181   -4.8835   -0.5815 P.3       1 <0>         2.2712
     12 O4         -5.3555   -4.7269    0.5527 O.2       1 <0>        -1.0701
     13 O5         -4.8762   -4.2587   -1.8796 O.3       1 <0>        -1.1109
     14 O6         -4.0195   -6.4469   -0.8236 O.3       1 <0>        -0.8693
     15 H1         -0.0620    2.3741    0.9389 H         1 <0>         0.0547
     16 H2         -1.4463    2.1949   -0.1656 H         1 <0>         0.0508
     17 H3         -1.6847    2.0442    1.5919 H         1 <0>         0.0564
     18 H4         -0.0481    0.1471   -0.1515 H         1 <0>         0.0654
     19 H5         -0.2865   -0.0036    1.6060 H         1 <0>         0.0786
     20 H6         -2.7338   -0.1986    1.2574 H         1 <0>         0.0817
     21 H7         -2.4954   -0.0479   -0.5001 H         1 <0>         0.0684
     22 H8         -1.0972   -2.0957   -0.4860 H         1 <0>         0.1026
     23 H9         -1.3356   -2.2463    1.2715 H         1 <0>         0.1713
     24 H10        -3.6450   -2.5013    0.9121 H         1 <0>         0.4269
     25 H11        -2.0419   -4.1457   -0.9140 H         1 <0>         0.1188
     26 H12        -4.7983   -6.9616   -1.0761 H         1 <0>         0.4011
     27 H13        -3.5034   -2.2238   -0.7059 H         1 <0>         0.3884
@<TRIPOS>BOND
     1    1    2 1
     2    1   15 1
     3    1   16 1
     4    1   17 1
     5    2    3 1
     6    2   18 1
     7    2   19 1
     8    3    4 1
     9    3   20 1
    10    3   21 1
    11    4    5 1
    12    4   22 1
    13    4   23 1
    14    5    6 1
    15    5   24 1
    16    5   27 1
    17    6    7 1
    18    6   11 1
    19    6   25 1
    20    7    8 2
    21    7    9 1
    22    7   10 1
    23   11   12 2
    24   11   13 1
    25   11   14 1
    26   14   26 1
@<TRIPOS>MOLECULE
CHEMBL55608__1
   26    25     0     0     0
SMALL
USER_CHARGES

@<TRIPOS>ATOM
      1 C1         -0.1369    1.8867   -1.2235 C.3       1 <0>        -0.1460
      2 C2         -0.1753    0.3788   -0.9673 C.3       1 <0>        -0.1196
      3 C3          0.6895   -0.3373   -2.0066 C.3       1 <0>        -0.1432
      4 C4          0.6510   -1.8452   -1.7504 C.3       1 <0>        -0.0366
      5 N1          1.4814   -2.5328   -2.7483 N.4       1 <0>        -0.4298
      6 C5          1.5524   -3.9638   -2.4240 C.3       1 <0>        -1.1312
      7 P1         -0.0988   -4.7127   -2.6143 P.3       1 <0>         2.1841
      8 O1         -1.0678   -4.1217   -1.5343 O.2       1 <0>        -1.1792
      9 O2         -0.6546   -4.3952   -4.0442 O.3       1 <0>        -1.1483
     10 O3          0.0070   -6.2646   -2.4278 O.3       1 <0>        -1.1386
     11 P2          2.7257   -4.7850   -3.5520 P.3       1 <0>         2.1779
     12 O4          2.1766   -4.7155   -5.0177 O.2       1 <0>        -1.1433
     13 O5          4.1133   -4.0614   -3.4794 O.3       1 <0>        -1.1910
     14 O6          2.8954   -6.2837   -3.1285 O.3       1 <0>        -1.1407
     15 H1          0.8908    2.2420   -1.1480 H         1 <0>         0.0492
     16 H2         -0.5211    2.0955   -2.2219 H         1 <0>         0.0547
     17 H3         -0.7530    2.3969   -0.4830 H         1 <0>         0.0504
     18 H4          0.2089    0.1700    0.0312 H         1 <0>         0.0634
     19 H5         -1.2030    0.0235   -1.0427 H         1 <0>         0.0768
     20 H6          0.3052   -0.1285   -3.0050 H         1 <0>         0.0775
     21 H7          1.7172    0.0179   -1.9311 H         1 <0>         0.0643
     22 H8          1.0353   -2.0540   -0.7519 H         1 <0>         0.0942
     23 H9         -0.3767   -2.2005   -1.8258 H         1 <0>         0.1657
     24 H10         1.0736   -2.4152   -3.6637 H         1 <0>         0.4183
     25 H11         1.8908   -4.0869   -1.3952 H         1 <0>         0.0909
     26 H12         2.4106   -2.1398   -2.7410 H         1 <0>         0.3800
@<TRIPOS>BOND
     1    1    2 1
     2    1   15 1
     3    1   16 1
     4    1   17 1
     5    2    3 1
     6    2   18 1
     7    2   19 1
     8    3    4 1
     9    3   20 1
    10    3   21 1
    11    4    5 1
    12    4   22 1
    13    4   23 1
    14    5    6 1
    15    5   24 1
    16    5   26 1
    17    6    7 1
    18    6   11 1
    19    6   25 1
    20    7    8 2
    21    7    9 1
    22    7   10 1
    23   11   12 2
    24   11   13 1
    25   11   14 1
@<TRIPOS>MOLECULE
CHEMBL416301
   46    45     0     0     0
SMALL
USER_CHARGES

@<TRIPOS>ATOM
      1 C1         -0.0187    1.5258    0.0104 C.3       1 <0>        -0.1515
      2 C2          0.0021   -0.0041    0.0020 C.3       1 <0>        -0.1263
      3 C3          0.7182   -0.4975   -1.2568 C.3       1 <0>        -0.1202
      4 C4          0.7390   -2.0273   -1.2652 C.3       1 <0>        -0.1210
      5 C5          1.4551   -2.5207   -2.5240 C.3       1 <0>        -0.1186
      6 C6          1.4758   -4.0506   -2.5324 C.3       1 <0>        -0.1202
      7 C7          2.1920   -4.5440   -3.7912 C.3       1 <0>        -0.1169
      8 C8          2.2127   -6.0738   -3.7996 C.3       1 <0>        -0.1160
      9 C9          2.9289   -6.5673   -5.0584 C.3       1 <0>        -0.1131
     10 C10         2.9496   -8.0971   -5.0668 C.3       1 <0>        -0.1386
     11 C11         3.6658   -8.5905   -6.3257 C.3       1 <0>        -0.0834
     12 C12         3.6865  -10.1203   -6.3341 C.3       1 <0>        -1.0337
     13 O1          4.3777  -10.5937   -5.1764 O.3       1 <0>        -0.5178
     14 P1          1.9762  -10.7513   -6.3211 P.3       1 <0>         2.2255
     15 O2          1.2831  -10.3536   -4.9736 O.2       1 <0>        -1.1791
     16 O3          1.1816  -10.1308   -7.5202 O.3       1 <0>        -1.1655
     17 O4          1.9943  -12.3119   -6.4584 O.3       1 <0>        -1.1785
     18 P2          4.5398  -10.7083   -7.8339 P.3       1 <0>         2.2727
     19 O5          3.7925  -10.1965   -9.0856 O.2       1 <0>        -1.0981
     20 O6          5.9892  -10.1735   -7.8449 O.3       1 <0>        -1.1372
     21 O7          4.5616  -12.3181   -7.8428 O.3       1 <0>        -0.8692
     22 H1          1.0039    1.9031    0.0027 H         1 <0>         0.0515
     23 H2         -0.5459    1.8868   -0.8726 H         1 <0>         0.0524
     24 H3         -0.5289    1.8773    0.9072 H         1 <0>         0.0490
     25 H4          0.5293   -0.3651    0.8851 H         1 <0>         0.0592
     26 H5         -1.0205   -0.3814    0.0098 H         1 <0>         0.0604
     27 H6          0.1910   -0.1364   -2.1398 H         1 <0>         0.0600
     28 H7          1.7408   -0.1202   -1.2645 H         1 <0>         0.0585
     29 H8          1.2661   -2.3884   -0.3821 H         1 <0>         0.0589
     30 H9         -0.2836   -2.4046   -1.2575 H         1 <0>         0.0610
     31 H10         0.9279   -2.1597   -3.4071 H         1 <0>         0.0595
     32 H11         2.4777   -2.1435   -2.5317 H         1 <0>         0.0567
     33 H12         2.0030   -4.4117   -1.6494 H         1 <0>         0.0573
     34 H13         0.4533   -4.4279   -2.5247 H         1 <0>         0.0621
     35 H14         1.6648   -4.1829   -4.6743 H         1 <0>         0.0582
     36 H15         3.2146   -4.1667   -3.7990 H         1 <0>         0.0523
     37 H16         2.7399   -6.4349   -2.9166 H         1 <0>         0.0525
     38 H17         1.1901   -6.4511   -3.7919 H         1 <0>         0.0667
     39 H18         2.4017   -6.2062   -5.9415 H         1 <0>         0.0528
     40 H19         3.9515   -6.1900   -5.0662 H         1 <0>         0.0364
     41 H20         3.4768   -8.4582   -4.1838 H         1 <0>         0.0404
     42 H21         1.9270   -8.4744   -5.0591 H         1 <0>         0.1237
     43 H22         3.1386   -8.2294   -7.2087 H         1 <0>         0.0663
     44 H23         4.6884   -8.2132   -6.3334 H         1 <0>         0.0209
     45 H24         5.2959  -10.2962   -5.1174 H         1 <0>         0.3105
     46 H25         5.0013  -12.7012   -8.6141 H         1 <0>         0.3792
@<TRIPOS>BOND
     1    1    2 1
     2    1   22 1
     3    1   23 1
     4    1   24 1
     5    2    3 1
     6    2   25 1
     7    2   26 1
     8    3    4 1
     9    3   27 1
    10    3   28 1
    11    4    5 1
    12    4   29 1
    13    4   30 1
    14    5    6 1
    15    5   31 1
    16    5   32 1
    17    6    7 1
    18    6   33 1
    19    6   34 1
    20    7    8 1
    21    7   35 1
    22    7   36 1
    23    8    9 1
    24    8   37 1
    25    8   38 1
    26    9   10 1
    27    9   39 1
    28    9   40 1
    29   10   11 1
    30   10   41 1
    31   10   42 1
    32   11   12 1
    33   11   43 1
    34   11   44 1
    35   12   13 1
    36   12   14 1
    37   12   18 1
    38   13   45 1
    39   14   15 2
    40   14   16 1
    41   14   17 1
    42   18   19 2
    43   18   20 1
    44   18   21 1
    45   21   46 1
@<TRIPOS>MOLECULE
CHEMBL416301__1
   47    46     0     0     0
SMALL
USER_CHARGES

@<TRIPOS>ATOM
      1 C1         -0.0187    1.5258    0.0104 C.3       1 <0>        -0.1524
      2 C2          0.0021   -0.0041    0.0020 C.3       1 <0>        -0.1262
      3 C3          0.7421   -0.5109    1.2415 C.3       1 <0>        -0.1205
      4 C4          0.7628   -2.0407    1.2331 C.3       1 <0>        -0.1210
      5 C5          1.5028   -2.5476    2.4727 C.3       1 <0>        -0.1193
      6 C6          1.5236   -4.0774    2.4642 C.3       1 <0>        -0.1202
      7 C7          2.2636   -4.5842    3.7038 C.3       1 <0>        -0.1182
      8 C8          2.2843   -6.1141    3.6954 C.3       1 <0>        -0.1164
      9 C9          3.0243   -6.6209    4.9349 C.3       1 <0>        -0.1147
     10 C10         3.0450   -8.1508    4.9265 C.3       1 <0>        -0.1483
     11 C11         3.7850   -8.6576    6.1660 C.3       1 <0>        -0.1033
     12 C12         3.8058  -10.1874    6.1576 C.3       1 <0>        -1.0334
     13 O1          4.4746  -10.6483    4.9819 O.3       1 <0>        -0.5078
     14 P1          4.6875  -10.7913    7.6345 P.3       1 <0>         2.2387
     15 O2          4.7084  -12.3362    7.6260 O.2       1 <0>        -1.0831
     16 O3          6.1369  -10.2566    7.6235 O.3       1 <0>        -1.1064
     17 O4          3.9339  -10.2721    8.9591 O.3       1 <0>        -0.8792
     18 P2          2.0955  -10.8184    6.1705 P.3       1 <0>         2.2873
     19 O5          1.3724  -10.3202    7.4417 O.2       1 <0>        -1.0934
     20 O6          1.3483  -10.3066    4.9189 O.3       1 <0>        -1.0970
     21 O7          2.1174  -12.4283    6.1616 O.3       1 <0>        -0.8800
     22 H1          1.0039    1.9031    0.0027 H         1 <0>         0.0521
     23 H2         -0.5459    1.8868   -0.8726 H         1 <0>         0.0506
     24 H3         -0.5289    1.8773    0.9072 H         1 <0>         0.0526
     25 H4         -1.0205   -0.3814    0.0098 H         1 <0>         0.0603
     26 H5          0.5123   -0.3556   -0.8948 H         1 <0>         0.0596
     27 H6          1.7647   -0.1336    1.2338 H         1 <0>         0.0592
     28 H7          0.2319   -0.1594    2.1383 H         1 <0>         0.0601
     29 H8         -0.2598   -2.4180    1.2409 H         1 <0>         0.0609
     30 H9          1.2730   -2.3923    0.3363 H         1 <0>         0.0595
     31 H10         2.5254   -2.1703    2.4649 H         1 <0>         0.0578
     32 H11         0.9926   -2.1961    3.3695 H         1 <0>         0.0596
     33 H12         0.5010   -4.4547    2.4720 H         1 <0>         0.0619
     34 H13         2.0337   -4.4289    1.5675 H         1 <0>         0.0585
     35 H14         3.2861   -4.2070    3.6960 H         1 <0>         0.0545
     36 H15         1.7534   -4.2327    4.6006 H         1 <0>         0.0587
     37 H16         1.2617   -6.4914    3.7031 H         1 <0>         0.0665
     38 H17         2.7945   -6.4656    2.7986 H         1 <0>         0.0553
     39 H18         4.0469   -6.2436    4.9271 H         1 <0>         0.0425
     40 H19         2.5141   -6.2694    5.8317 H         1 <0>         0.0540
     41 H20         2.0224   -8.5280    4.9342 H         1 <0>         0.1272
     42 H21         3.5552   -8.5023    4.0297 H         1 <0>         0.0504
     43 H22         4.8076   -8.2803    6.1583 H         1 <0>         0.0476
     44 H23         3.2748   -8.3061    7.0628 H         1 <0>         0.0654
     45 H24         5.3916  -10.3501    4.9086 H         1 <0>         0.3459
     46 H25         4.3492  -10.5564    9.7848 H         1 <0>         0.3988
     47 H26         1.2394  -12.8336    6.1679 H         1 <0>         0.3955
@<TRIPOS>BOND
     1    1    2 1
     2    1   22 1
     3    1   23 1
     4    1   24 1
     5    2    3 1
     6    2   25 1
     7    2   26 1
     8    3    4 1
     9    3   27 1
    10    3   28 1
    11    4    5 1
    12    4   29 1
    13    4   30 1
    14    5    6 1
    15    5   31 1
    16    5   32 1
    17    6    7 1
    18    6   33 1
    19    6   34 1
    20    7    8 1
    21    7   35 1
    22    7   36 1
    23    8    9 1
    24    8   37 1
    25    8   38 1
    26    9   10 1
    27    9   39 1
    28    9   40 1
    29   10   11 1
    30   10   41 1
    31   10   42 1
    32   11   12 1
    33   11   43 1
    34   11   44 1
    35   12   13 1
    36   12   14 1
    37   12   18 1
    38   13   45 1
    39   14   15 2
    40   14   16 1
    41   14   17 1
    42   17   46 1
    43   18   19 2
    44   18   20 1
    45   18   21 1
    46   21   47 1
@<TRIPOS>MOLECULE
CHEMBL54747
   46    45     0     0     0
SMALL
USER_CHARGES

@<TRIPOS>ATOM
      1 C1         -3.0431    0.3945   -2.7227 C.3       1 <0>        -0.1468
      2 C2         -2.0735   -0.5819   -2.0538 C.3       1 <0>        -0.1254
      3 C3         -1.2574   -1.3056   -3.1267 C.3       1 <0>        -0.1159
      4 C4         -0.2877   -2.2819   -2.4578 C.3       1 <0>        -0.1092
      5 C5          0.5284   -3.0056   -3.5308 C.3       1 <0>        -0.1017
      6 C6          1.4981   -3.9820   -2.8619 C.3       1 <0>        -0.1785
      7 C7          2.2419   -4.7782   -3.9359 C.3       1 <0>        -0.0183
      8 C8          2.2690   -6.2577   -3.5469 C.3       1 <0>        -0.1684
      9 C9          2.9033   -7.0707   -4.6773 C.3       1 <0>        -0.0913
     10 C10         2.7705   -8.5633   -4.3685 C.3       1 <0>        -0.1202
     11 C11         3.4048   -9.3763   -5.4988 C.3       1 <0>        -0.1403
     12 C12         3.6751   -4.2563   -4.0567 C.3       1 <0>        -1.0327
     13 O1          4.3384   -4.9295   -5.1286 O.3       1 <0>        -0.5518
     14 P1          4.5685   -4.5675   -2.4984 P.3       1 <0>         2.2213
     15 O2          3.8925   -3.7598   -1.3386 O.2       1 <0>        -1.1486
     16 O3          4.5209   -6.0977   -2.1658 O.3       1 <0>        -1.1639
     17 O4          6.0597   -4.1125   -2.6515 O.3       1 <0>        -1.1753
     18 P2          3.6432   -2.4646   -4.3915 P.3       1 <0>         2.2273
     19 O5          3.0238   -1.7260   -3.1841 O.2       1 <0>        -1.0646
     20 O6          5.0845   -1.9579   -4.6211 O.3       1 <0>        -1.1004
     21 O7          2.7585   -2.1800   -5.7062 O.3       1 <0>        -0.9033
     22 H1         -2.4802    1.1241   -3.3047 H         1 <0>         0.0519
     23 H2         -3.7155   -0.1552   -3.3814 H         1 <0>         0.0452
     24 H3         -3.6246    0.9101   -1.9583 H         1 <0>         0.0421
     25 H4         -1.4012   -0.0322   -1.3950 H         1 <0>         0.0648
     26 H5         -2.6364   -1.3115   -1.4717 H         1 <0>         0.0532
     27 H6         -1.9297   -1.8552   -3.7855 H         1 <0>         0.0436
     28 H7         -0.6944   -0.5759   -3.7088 H         1 <0>         0.0615
     29 H8          0.3846   -1.7323   -1.7991 H         1 <0>         0.0821
     30 H9         -0.8506   -3.0116   -1.8758 H         1 <0>         0.0380
     31 H10        -0.1439   -3.5553   -4.1895 H         1 <0>         0.0100
     32 H11         1.0913   -2.2760   -4.1128 H         1 <0>         0.0768
     33 H12         2.2161   -3.4255   -2.2595 H         1 <0>         0.1822
     34 H13         0.9408   -4.6668   -2.2226 H         1 <0>         0.0273
     35 H14         1.7316   -4.6632   -4.8922 H         1 <0>         0.0087
     36 H15         2.8545   -6.3832   -2.6362 H         1 <0>         0.1586
     37 H16         1.2508   -6.6069   -3.3753 H         1 <0>        -0.0006
     38 H17         2.3950   -6.8470   -5.6152 H         1 <0>         0.0099
     39 H18         3.9581   -6.8102   -4.7645 H         1 <0>         0.0958
     40 H19         3.2788   -8.7870   -3.4306 H         1 <0>         0.0685
     41 H20         1.7157   -8.8238   -4.2812 H         1 <0>         0.0322
     42 H21         2.8965   -9.1527   -6.4367 H         1 <0>         0.0372
     43 H22         4.4596   -9.1158   -5.5861 H         1 <0>         0.0532
     44 H23         3.3101  -10.4397   -5.2788 H         1 <0>         0.0335
     45 H24         5.2537   -4.6480   -5.2633 H         1 <0>         0.3511
     46 H25         2.7604   -1.2553   -5.9889 H         1 <0>         0.3813
@<TRIPOS>BOND
     1    1    2 1
     2    1   22 1
     3    1   23 1
     4    1   24 1
     5    2    3 1
     6    2   25 1
     7    2   26 1
     8    3    4 1
     9    3   27 1
    10    3   28 1
    11    4    5 1
    12    4   29 1
    13    4   30 1
    14    5    6 1
    15    5   31 1
    16    5   32 1
    17    6    7 1
    18    6   33 1
    19    6   34 1
    20    7    8 1
    21    7   12 1
    22    7   35 1
    23    8    9 1
    24    8   36 1
    25    8   37 1
    26    9   10 1
    27    9   38 1
    28    9   39 1
    29   10   11 1
    30   10   40 1
    31   10   41 1
    32   11   42 1
    33   11   43 1
    34   11   44 1
    35   12   13 1
    36   12   14 1
    37   12   18 1
    38   13   45 1
    39   14   15 2
    40   14   16 1
    41   14   17 1
    42   18   19 2
    43   18   20 1
    44   18   21 1
    45   21   46 1
@<TRIPOS>MOLECULE
CHEMBL54747__1
   47    46     0     0     0
SMALL
USER_CHARGES

@<TRIPOS>ATOM
      1 C1          3.9286    0.6894   -1.1323 C.3       1 <0>        -0.1490
      2 C2          2.8424   -0.2825   -0.6669 C.3       1 <0>        -0.1252
      3 C3          3.3647   -1.1039    0.5135 C.3       1 <0>        -0.1175
      4 C4          2.2785   -2.0757    0.9789 C.3       1 <0>        -0.1106
      5 C5          2.8008   -2.8971    2.1594 C.3       1 <0>        -0.1043
      6 C6          1.7146   -3.8689    2.6248 C.3       1 <0>        -0.1791
      7 C7          2.2758   -4.7723    3.7247 C.3       1 <0>        -0.0420
      8 C8          1.8804   -6.2235    3.4440 C.3       1 <0>        -0.1417
      9 C9          2.5379   -7.1403    4.4775 C.3       1 <0>        -0.1063
     10 C10         2.2816   -8.6007    4.1001 C.3       1 <0>        -0.1225
     11 C11         2.9391   -9.5174    5.1336 C.3       1 <0>        -0.1456
     12 C12         1.7071   -4.3415    5.0781 C.3       1 <0>        -1.0285
     13 O1          2.3395   -5.0877    6.1199 O.3       1 <0>        -0.5455
     14 P1          2.0183   -2.5629    5.3296 P.3       1 <0>         2.2336
     15 O2          1.2612   -1.7507    4.2554 O.2       1 <0>        -1.0535
     16 O3          1.5240   -2.1470    6.7331 O.3       1 <0>        -1.0834
     17 O4          3.5972   -2.2720    5.2087 O.3       1 <0>        -0.9009
     18 P2         -0.0885   -4.6547    5.1103 P.3       1 <0>         2.2378
     19 O5         -0.6580   -4.2457    6.4870 O.2       1 <0>        -1.0803
     20 O6         -0.7757   -3.8262    4.0020 O.3       1 <0>        -1.0635
     21 O7         -0.3647   -6.2208    4.8590 O.3       1 <0>        -0.8880
     22 H1          4.8100    0.1279   -1.4421 H         1 <0>         0.0468
     23 H2          3.5565    1.2745   -1.9733 H         1 <0>         0.0453
     24 H3          4.1931    1.3580   -0.3131 H         1 <0>         0.0529
     25 H4          1.9610    0.2790   -0.3571 H         1 <0>         0.0648
     26 H5          2.5779   -0.9511   -1.4861 H         1 <0>         0.0542
     27 H6          4.2461   -1.6653    0.2038 H         1 <0>         0.0466
     28 H7          3.6292   -0.4352    1.3327 H         1 <0>         0.0626
     29 H8          1.3971   -1.5142    1.2887 H         1 <0>         0.0822
     30 H9          2.0140   -2.7444    0.1598 H         1 <0>         0.0416
     31 H10         3.6822   -3.4586    1.8496 H         1 <0>         0.0209
     32 H11         3.0653   -2.2285    2.9785 H         1 <0>         0.0775
     33 H12         0.8663   -3.3062    3.0144 H         1 <0>         0.1749
     34 H13         1.3893   -4.4804    1.7831 H         1 <0>         0.0399
     35 H14         3.3625   -4.6891    3.7440 H         1 <0>         0.0452
     36 H15         0.7968   -6.3234    3.5068 H         1 <0>         0.0996
     37 H16         2.2139   -6.5042    2.4449 H         1 <0>         0.0371
     38 H17         3.6116   -6.9534    4.4981 H         1 <0>         0.0357
     39 H18         2.1152   -6.9399    5.4620 H         1 <0>         0.0898
     40 H19         1.2079   -8.7875    4.0794 H         1 <0>         0.0626
     41 H20         2.7043   -8.8011    3.1155 H         1 <0>         0.0438
     42 H21         4.0127   -9.3306    5.1542 H         1 <0>         0.0448
     43 H22         2.5164   -9.3171    6.1181 H         1 <0>         0.0535
     44 H23         2.7565  -10.5579    4.8647 H         1 <0>         0.0420
     45 H24         2.0271   -4.8661    7.0078 H         1 <0>         0.3643
     46 H25         3.8452   -1.3588    5.4076 H         1 <0>         0.3956
     47 H26        -1.3018   -6.4483    4.7870 H         1 <0>         0.3922
@<TRIPOS>BOND
     1    1    2 1
     2    1   22 1
     3    1   23 1
     4    1   24 1
     5    2    3 1
     6    2   25 1
     7    2   26 1
     8    3    4 1
     9    3   27 1
    10    3   28 1
    11    4    5 1
    12    4   29 1
    13    4   30 1
    14    5    6 1
    15    5   31 1
    16    5   32 1
    17    6    7 1
    18    6   33 1
    19    6   34 1
    20    7    8 1
    21    7   12 1
    22    7   35 1
    23    8    9 1
    24    8   36 1
    25    8   37 1
    26    9   10 1
    27    9   38 1
    28    9   39 1
    29   10   11 1
    30   10   40 1
    31   10   41 1
    32   11   42 1
    33   11   43 1
    34   11   44 1
    35   12   13 1
    36   12   14 1
    37   12   18 1
    38   13   45 1
    39   14   15 2
    40   14   16 1
    41   14   17 1
    42   17   46 1
    43   18   19 2
    44   18   20 1
    45   18   21 1
    46   21   47 1
@<TRIPOS>MOLECULE
CHEMBL54747__2
   46    45     0     0     0
SMALL
USER_CHARGES

@<TRIPOS>ATOM
      1 C1          5.0539    1.2821    0.0759 C.3       1 <0>        -0.1469
      2 C2          3.9430    0.2342   -0.0176 C.3       1 <0>        -0.1250
      3 C3          4.1509   -0.6191   -1.2704 C.3       1 <0>        -0.1156
      4 C4          3.0401   -1.6670   -1.3639 C.3       1 <0>        -0.1020
      5 C5          3.2480   -2.5203   -2.6167 C.3       1 <0>        -0.1202
      6 C6          2.1372   -3.5682   -2.7102 C.3       1 <0>        -0.1673
      7 C7          2.4302   -4.5198   -3.8719 C.3       1 <0>        -0.0202
      8 C8          1.9536   -5.9280   -3.5102 C.3       1 <0>        -0.1351
      9 C9          2.3772   -6.9071   -4.6069 C.3       1 <0>        -0.0938
     10 C10         1.9532   -8.3245   -4.2168 C.3       1 <0>        -0.1185
     11 C11         2.3769   -9.3036   -5.3135 C.3       1 <0>        -0.1388
     12 C12         1.6943   -4.0381   -5.1238 C.3       1 <0>        -1.0313
     13 O1          2.1390   -4.7881   -6.2559 O.3       1 <0>        -0.5513
     14 P1         -0.0996   -4.2764   -4.9036 P.3       1 <0>         2.2154
     15 O2         -0.4232   -5.8090   -4.8747 O.2       1 <0>        -1.1745
     16 O3         -0.5516   -3.6217   -3.5540 O.3       1 <0>        -1.1579
     17 O4         -0.8657   -3.6032   -6.0929 O.3       1 <0>        -1.1688
     18 P2          2.0440   -2.2691   -5.3914 P.3       1 <0>         2.2311
     19 O5          1.3286   -1.7910   -6.6746 O.2       1 <0>        -1.0901
     20 O6          1.5323   -1.4544   -4.1825 O.3       1 <0>        -1.0683
     21 O7          3.6317   -2.0540   -5.5502 O.3       1 <0>        -0.9027
     22 H1          6.0209    0.7824    0.1330 H         1 <0>         0.0451
     23 H2          5.0264    1.9205   -0.8072 H         1 <0>         0.0525
     24 H3          4.9057    1.8901    0.9684 H         1 <0>         0.0414
     25 H4          3.9704   -0.4041    0.8655 H         1 <0>         0.0516
     26 H5          2.9760    0.7340   -0.0748 H         1 <0>         0.0641
     27 H6          4.1235    0.0193   -2.1535 H         1 <0>         0.0632
     28 H7          5.1180   -1.1188   -1.2133 H         1 <0>         0.0425
     29 H8          3.0675   -2.3054   -0.4808 H         1 <0>         0.0311
     30 H9          2.0731   -1.1673   -1.4211 H         1 <0>         0.0797
     31 H10         3.2206   -1.8819   -3.4998 H         1 <0>         0.0986
     32 H11         4.2150   -3.0200   -2.5596 H         1 <0>         0.0020
     33 H12         2.0921   -4.1339   -1.7796 H         1 <0>         0.0210
     34 H13         1.1821   -3.0711   -2.8798 H         1 <0>         0.1779
     35 H14         3.5028   -4.5377   -4.0652 H         1 <0>         0.0108
     36 H15         2.3984   -6.2298   -2.5620 H         1 <0>         0.0056
     37 H16         0.8674   -5.9318   -3.4195 H         1 <0>         0.1250
     38 H17         1.8983   -6.6302   -5.5461 H         1 <0>         0.1037
     39 H18         3.4600   -6.8719   -4.7270 H         1 <0>         0.0081
     40 H19         2.4322   -8.6014   -3.2776 H         1 <0>         0.0293
     41 H20         0.8704   -8.3597   -4.0967 H         1 <0>         0.0748
     42 H21         1.8979   -9.0267   -6.2526 H         1 <0>         0.0542
     43 H22         3.4596   -9.2684   -5.4336 H         1 <0>         0.0349
     44 H23         2.0748  -10.3134   -5.0355 H         1 <0>         0.0332
     45 H24         1.7135   -4.5357   -7.0868 H         1 <0>         0.3498
     46 H25         3.8979   -1.1270   -5.6201 H         1 <0>         0.3818
@<TRIPOS>BOND
     1    1    2 1
     2    1   22 1
     3    1   23 1
     4    1   24 1
     5    2    3 1
     6    2   25 1
     7    2   26 1
     8    3    4 1
     9    3   27 1
    10    3   28 1
    11    4    5 1
    12    4   29 1
    13    4   30 1
    14    5    6 1
    15    5   31 1
    16    5   32 1
    17    6    7 1
    18    6   33 1
    19    6   34 1
    20    7    8 1
    21    7   12 1
    22    7   35 1
    23    8    9 1
    24    8   36 1
    25    8   37 1
    26    9   10 1
    27    9   38 1
    28    9   39 1
    29   10   11 1
    30   10   40 1
    31   10   41 1
    32   11   42 1
    33   11   43 1
    34   11   44 1
    35   12   13 1
    36   12   14 1
    37   12   18 1
    38   13   45 1
    39   14   15 2
    40   14   16 1
    41   14   17 1
    42   18   19 2
    43   18   20 1
    44   18   21 1
    45   21   46 1
@<TRIPOS>MOLECULE
CHEMBL54747__3
   47    46     0     0     0
SMALL
USER_CHARGES

@<TRIPOS>ATOM
      1 C1         -3.4326    0.3828    2.9033 C.3       1 <0>        -0.1502
      2 C2         -3.0117   -1.0702    2.6740 C.3       1 <0>        -0.1238
      3 C3         -1.5505   -1.2497    3.0907 C.3       1 <0>        -0.1181
      4 C4         -1.1295   -2.7027    2.8614 C.3       1 <0>        -0.1159
      5 C5          0.3316   -2.8822    3.2781 C.3       1 <0>        -0.1070
      6 C6          0.7526   -4.3351    3.0487 C.3       1 <0>        -0.1316
      7 C7          2.1649   -4.5495    3.5968 C.3       1 <0>        -0.0409
      8 C8          2.5347   -6.0302    3.4884 C.3       1 <0>        -0.1755
      9 C9          3.3080   -6.4555    4.7382 C.3       1 <0>        -0.1145
     10 C10         3.5383   -7.9677    4.7054 C.3       1 <0>        -0.1140
     11 C11         4.3117   -8.3930    5.9552 C.3       1 <0>        -0.1445
     12 C12         3.1586   -3.7150    2.7862 C.3       1 <0>        -1.0282
     13 O1          2.9240   -2.3265    3.0291 O.3       1 <0>        -0.5456
     14 P1          4.8593   -4.1405    3.2861 P.3       1 <0>         2.2354
     15 O2          5.1508   -5.6127    2.9192 O.2       1 <0>        -1.0557
     16 O3          5.8580   -3.2190    2.5510 O.3       1 <0>        -1.0817
     17 O4          5.0167   -3.9424    4.8761 O.3       1 <0>        -0.9001
     18 P2          2.9412   -4.0666    1.0107 P.3       1 <0>         2.2402
     19 O5          4.0236   -3.3182    0.2012 O.2       1 <0>        -1.0776
     20 O6          3.0742   -5.5863    0.7666 O.3       1 <0>        -1.0666
     21 O7          1.4825   -3.5732    0.5406 O.3       1 <0>        -0.8913
     22 H1         -2.8013    1.0423    2.3078 H         1 <0>         0.0532
     23 H2         -4.4736    0.5106    2.6064 H         1 <0>         0.0473
     24 H3         -3.3228    0.6305    3.9591 H         1 <0>         0.0497
     25 H4         -3.6430   -1.7297    3.2695 H         1 <0>         0.0552
     26 H5         -3.1214   -1.3180    1.6182 H         1 <0>         0.0603
     27 H6         -0.9192   -0.5902    2.4952 H         1 <0>         0.0617
     28 H7         -1.4407   -1.0019    4.1465 H         1 <0>         0.0527
     29 H8         -1.7608   -3.3622    3.4569 H         1 <0>         0.0440
     30 H9         -1.2393   -2.9504    1.8056 H         1 <0>         0.0633
     31 H10         0.9629   -2.2227    2.6826 H         1 <0>         0.0912
     32 H11         0.4414   -2.6344    4.3339 H         1 <0>         0.0359
     33 H12         0.0585   -5.0000    3.5629 H         1 <0>         0.0389
     34 H13         0.7404   -4.5527    1.9807 H         1 <0>         0.0869
     35 H14         2.1996   -4.2419    4.6419 H         1 <0>         0.0452
     36 H15         1.6261   -6.6263    3.4030 H         1 <0>         0.0382
     37 H16         3.1557   -6.1859    2.6063 H         1 <0>         0.1726
     38 H17         4.2692   -5.9421    4.7629 H         1 <0>         0.0885
     39 H18         2.7338   -6.1946    5.6271 H         1 <0>         0.0184
     40 H19         2.5771   -8.4811    4.6807 H         1 <0>         0.0384
     41 H20         4.1126   -8.2286    3.8164 H         1 <0>         0.0802
     42 H21         5.2729   -7.8796    5.9799 H         1 <0>         0.0555
     43 H22         3.7374   -8.1321    6.8441 H         1 <0>         0.0376
     44 H23         4.4757   -9.4704    5.9318 H         1 <0>         0.0401
     45 H24         3.5193   -1.7367    2.5465 H         1 <0>         0.3634
     46 H25         5.9172   -4.0767    5.2019 H         1 <0>         0.3958
     47 H26         1.2678   -3.7970   -0.3753 H         1 <0>         0.3932
@<TRIPOS>BOND
     1    1    2 1
     2    1   22 1
     3    1   23 1
     4    1   24 1
     5    2    3 1
     6    2   25 1
     7    2   26 1
     8    3    4 1
     9    3   27 1
    10    3   28 1
    11    4    5 1
    12    4   29 1
    13    4   30 1
    14    5    6 1
    15    5   31 1
    16    5   32 1
    17    6    7 1
    18    6   33 1
    19    6   34 1
    20    7    8 1
    21    7   12 1
    22    7   35 1
    23    8    9 1
    24    8   36 1
    25    8   37 1
    26    9   10 1
    27    9   38 1
    28    9   39 1
    29   10   11 1
    30   10   40 1
    31   10   41 1
    32   11   42 1
    33   11   43 1
    34   11   44 1
    35   12   13 1
    36   12   14 1
    37   12   18 1
    38   13   45 1
    39   14   15 2
    40   14   16 1
    41   14   17 1
    42   17   46 1
    43   18   19 2
    44   18   20 1
    45   18   21 1
    46   21   47 1
@<TRIPOS>MOLECULE
CHEMBL56254
   33    32     0     0     0
SMALL
USER_CHARGES

@<TRIPOS>ATOM
      1 C1         -0.2997    2.0605   -1.6925 C.3       1 <0>        -0.1508
      2 C2         -0.3304    0.5511   -1.4440 C.3       1 <0>        -0.1268
      3 C3          0.5492   -0.1540   -2.4785 C.3       1 <0>        -0.1183
      4 C4          0.5185   -1.6634   -2.2299 C.3       1 <0>        -0.1158
      5 C5          1.3980   -2.3685   -3.2644 C.3       1 <0>        -0.1428
      6 C6          1.3674   -3.8779   -3.0158 C.3       1 <0>        -0.0325
      7 N1          2.2119   -4.5550   -4.0090 N.4       1 <0>        -0.4305
      8 C7          2.2893   -5.9871   -3.6913 C.3       1 <0>        -1.1471
      9 P1          0.6451   -6.7459   -3.9017 P.3       1 <0>         2.1288
     10 O1         -0.3386   -6.1667   -2.8288 O.2       1 <0>        -1.1452
     11 O2          0.1016   -6.4252   -5.3357 O.3       1 <0>        -1.1217
     12 O3          0.7594   -8.2980   -3.7216 O.3       1 <0>        -1.1260
     13 P2          3.4792   -6.7947   -4.8116 P.3       1 <0>         2.2711
     14 O4          3.0129   -6.6161   -6.2736 O.2       1 <0>        -1.0699
     15 O5          4.8726   -6.1516   -4.6332 O.3       1 <0>        -1.1108
     16 O6          3.5640   -8.3643   -4.4633 O.3       1 <0>        -0.8693
     17 H1          0.7248    2.4223   -1.6055 H         1 <0>         0.0508
     18 H2         -0.6758    2.2716   -2.6936 H         1 <0>         0.0533
     19 H3         -0.9263    2.5629   -0.9556 H         1 <0>         0.0504
     20 H4          0.0457    0.3400   -0.4429 H         1 <0>         0.0601
     21 H5         -1.3549    0.1893   -1.5310 H         1 <0>         0.0647
     22 H6          0.1731    0.0571   -3.4795 H         1 <0>         0.0646
     23 H7          1.5737    0.2078   -2.3914 H         1 <0>         0.0593
     24 H8          0.8946   -1.8745   -1.2289 H         1 <0>         0.0660
     25 H9         -0.5060   -2.0252   -2.3169 H         1 <0>         0.0791
     26 H10         1.0219   -2.1575   -4.2654 H         1 <0>         0.0818
     27 H11         2.4225   -2.0067   -3.1774 H         1 <0>         0.0685
     28 H12         1.7435   -4.0890   -2.0148 H         1 <0>         0.1026
     29 H13         0.3429   -4.2398   -3.1028 H         1 <0>         0.1714
     30 H14         1.8122   -4.4354   -4.9278 H         1 <0>         0.4268
     31 H15         2.6182   -6.1131   -2.6598 H         1 <0>         0.1188
     32 H16         4.1799   -8.8583   -5.0216 H         1 <0>         0.4011
     33 H17         3.1384   -4.1559   -3.9908 H         1 <0>         0.3883
@<TRIPOS>BOND
     1    1    2 1
     2    1   17 1
     3    1   18 1
     4    1   19 1
     5    2    3 1
     6    2   20 1
     7    2   21 1
     8    3    4 1
     9    3   22 1
    10    3   23 1
    11    4    5 1
    12    4   24 1
    13    4   25 1
    14    5    6 1
    15    5   26 1
    16    5   27 1
    17    6    7 1
    18    6   28 1
    19    6   29 1
    20    7    8 1
    21    7   30 1
    22    7   33 1
    23    8    9 1
    24    8   13 1
    25    8   31 1
    26    9   10 2
    27    9   11 1
    28    9   12 1
    29   13   14 2
    30   13   15 1
    31   13   16 1
    32   16   32 1
@<TRIPOS>MOLECULE
CHEMBL56254__1
   32    31     0     0     0
SMALL
USER_CHARGES

@<TRIPOS>ATOM
      1 C1         -0.2263    2.0875   -1.7076 C.3       1 <0>        -0.1493
      2 C2         -0.2647    0.5796   -1.4514 C.3       1 <0>        -0.1266
      3 C3          0.6001   -0.1366   -2.4907 C.3       1 <0>        -0.1180
      4 C4          0.5616   -1.6445   -2.2345 C.3       1 <0>        -0.1147
      5 C5          1.4264   -2.3606   -3.2738 C.3       1 <0>        -0.1428
      6 C6          1.3880   -3.8685   -3.0176 C.3       1 <0>        -0.0362
      7 N1          2.2183   -4.5561   -4.0155 N.4       1 <0>        -0.4297
      8 C7          2.2893   -5.9871   -3.6913 C.3       1 <0>        -1.1318
      9 P1          0.6381   -6.7359   -3.8815 P.3       1 <0>         2.1843
     10 O1         -0.3309   -6.1449   -2.8016 O.2       1 <0>        -1.1790
     11 O2          0.0823   -6.4184   -5.3115 O.3       1 <0>        -1.1484
     12 O3          0.7438   -8.2878   -3.6950 O.3       1 <0>        -1.1387
     13 P2          3.4625   -6.8083   -4.8192 P.3       1 <0>         2.1777
     14 O4          2.9135   -6.7388   -6.2849 O.2       1 <0>        -1.1431
     15 O5          4.8502   -6.0847   -4.7466 O.3       1 <0>        -1.1909
     16 O6          3.6322   -8.3070   -4.3957 O.3       1 <0>        -1.1406
     17 H1          0.8015    2.4427   -1.6321 H         1 <0>         0.0500
     18 H2         -0.6105    2.2963   -2.7060 H         1 <0>         0.0525
     19 H3         -0.8423    2.5977   -0.9672 H         1 <0>         0.0478
     20 H4          0.1195    0.3708   -0.4530 H         1 <0>         0.0595
     21 H5         -1.2924    0.2243   -1.5269 H         1 <0>         0.0640
     22 H6          0.2159    0.0723   -3.4892 H         1 <0>         0.0633
     23 H7          1.6278    0.2187   -2.4152 H         1 <0>         0.0581
     24 H8          0.9458   -1.8533   -1.2361 H         1 <0>         0.0640
     25 H9         -0.4661   -1.9997   -2.3100 H         1 <0>         0.0772
     26 H10         1.0422   -2.1518   -4.2723 H         1 <0>         0.0776
     27 H11         2.4541   -2.0053   -3.1983 H         1 <0>         0.0644
     28 H12         1.7722   -4.0773   -2.0192 H         1 <0>         0.0941
     29 H13         0.3602   -4.2238   -3.0931 H         1 <0>         0.1658
     30 H14         1.8105   -4.4384   -4.9309 H         1 <0>         0.4182
     31 H15         2.6277   -6.1102   -2.6625 H         1 <0>         0.0910
     32 H16         3.1476   -4.1631   -4.0082 H         1 <0>         0.3800
@<TRIPOS>BOND
     1    1    2 1
     2    1   17 1
     3    1   18 1
     4    1   19 1
     5    2    3 1
     6    2   20 1
     7    2   21 1
     8    3    4 1
     9    3   22 1
    10    3   23 1
    11    4    5 1
    12    4   24 1
    13    4   25 1
    14    5    6 1
    15    5   26 1
    16    5   27 1
    17    6    7 1
    18    6   28 1
    19    6   29 1
    20    7    8 1
    21    7   30 1
    22    7   32 1
    23    8    9 1
    24    8   13 1
    25    8   31 1
    26    9   10 2
    27    9   11 1
    28    9   12 1
    29   13   14 2
    30   13   15 1
    31   13   16 1
@<TRIPOS>MOLECULE
CHEMBL56073
   47    47     0     0     0
SMALL
USER_CHARGES

@<TRIPOS>ATOM
      1 C1         -0.0178    1.4648    0.0101 C.3       1 <0>        -0.0527
      2 N1          0.0021   -0.0041    0.0020 N.4       1 <0>        -0.3827
      3 C2          0.6897   -0.4778   -1.2066 C.3       1 <0>        -0.0069
      4 C3          2.1588   -0.0534   -1.1571 C.3       1 <0>        -0.1460
      5 C4          2.8749   -0.5468   -2.4159 C.3       1 <0>        -0.1116
      6 C5          4.3440   -0.1223   -2.3663 C.3       1 <0>        -0.0804
      7 C6          5.0494   -0.6083   -3.6062 C.ar      1 <0>        -0.0817
      8 C7          5.6446   -1.8559   -3.6186 C.ar      1 <0>        -0.1154
      9 C8          6.2916   -2.3017   -4.7559 C.ar      1 <0>        -0.1177
     10 C9          6.3431   -1.5001   -5.8810 C.ar      1 <0>        -0.1263
     11 C10         5.7471   -0.2529   -5.8688 C.ar      1 <0>        -0.1200
     12 C11         5.0964    0.1911   -4.7329 C.ar      1 <0>        -0.1181
     13 C12        -1.3761   -0.5125    0.0124 C.3       1 <0>        -0.0342
     14 C13        -2.0530   -0.1242    1.3284 C.3       1 <0>        -0.1132
     15 C14        -3.4884   -0.6537    1.3393 C.3       1 <0>        -1.0255
     16 O1         -4.2133   -0.0877    0.2455 O.3       1 <0>        -0.5139
     17 P1         -3.4674   -2.4696    1.1795 P.3       1 <0>         2.1983
     18 O2         -2.8908   -2.8638   -0.2228 O.2       1 <0>        -1.1669
     19 O3         -2.5669   -3.0825    2.3055 O.3       1 <0>        -1.1493
     20 O4         -4.9264   -3.0230    1.3186 O.3       1 <0>        -1.1566
     21 P2         -4.2950   -0.1910    2.9073 P.3       1 <0>         2.2763
     22 O5         -3.5113   -0.8030    4.0898 O.2       1 <0>        -1.0899
     23 O6         -4.3128    1.3480    3.0427 O.3       1 <0>        -1.1287
     24 O7         -5.8055   -0.7482    2.9187 O.3       1 <0>        -0.8701
     25 H1          1.0047    1.8421    0.0024 H         1 <0>         0.1072
     26 H2         -0.5450    1.8259   -0.8730 H         1 <0>         0.1101
     27 H3         -0.5280    1.8163    0.9069 H         1 <0>         0.1235
     28 H4          0.6271   -1.5648   -1.2578 H         1 <0>         0.1341
     29 H5          0.2159   -0.0447   -2.0875 H         1 <0>         0.1190
     30 H6          2.2214    1.0336   -1.1059 H         1 <0>         0.0803
     31 H7          2.6326   -0.4865   -0.2761 H         1 <0>         0.0853
     32 H8          2.8123   -1.6338   -2.4670 H         1 <0>         0.0777
     33 H9          2.4011   -0.1137   -3.2968 H         1 <0>         0.0720
     34 H10         4.4066    0.9647   -2.3152 H         1 <0>         0.0729
     35 H11         4.8178   -0.5554   -1.4854 H         1 <0>         0.0764
     36 H12         5.6044   -2.4822   -2.7397 H         1 <0>         0.1237
     37 H13         6.7573   -3.2761   -4.7654 H         1 <0>         0.1218
     38 H14         6.8492   -1.8481   -6.7693 H         1 <0>         0.1195
     39 H15         5.7876    0.3735   -6.7477 H         1 <0>         0.1200
     40 H16         4.6275    1.1640   -4.7247 H         1 <0>         0.1202
     41 H17        -1.9290   -0.0808   -0.8218 H         1 <0>         0.1137
     42 H18        -1.3635   -1.5983   -0.0831 H         1 <0>         0.1835
     43 H19        -1.5001   -0.5559    2.1627 H         1 <0>         0.0931
     44 H20        -2.0656    0.9616    1.4239 H         1 <0>         0.0522
     45 H21        -4.2652    0.8777    0.2657 H         1 <0>         0.3193
     46 H22        -6.2960   -0.5384    3.7252 H         1 <0>         0.3887
     47 H23         0.4901   -0.3383    0.8195 H         1 <0>         0.4191
@<TRIPOS>BOND
     1    1    2 1
     2    1   25 1
     3    1   26 1
     4    1   27 1
     5    2    3 1
     6    2   13 1
     7    2   47 1
     8    3    4 1
     9    3   28 1
    10    3   29 1
    11    4    5 1
    12    4   30 1
    13    4   31 1
    14    5    6 1
    15    5   32 1
    16    5   33 1
    17    6    7 1
    18    6   34 1
    19    6   35 1
    20    7   12 ar
    21    7    8 ar
    22    8    9 ar
    23    8   36 1
    24    9   10 ar
    25    9   37 1
    26   10   11 ar
    27   10   38 1
    28   11   12 ar
    29   11   39 1
    30   12   40 1
    31   13   14 1
    32   13   41 1
    33   13   42 1
    34   14   15 1
    35   14   43 1
    36   14   44 1
    37   15   16 1
    38   15   17 1
    39   15   21 1
    40   16   45 1
    41   17   18 2
    42   17   19 1
    43   17   20 1
    44   21   22 2
    45   21   23 1
    46   21   24 1
    47   24   46 1
@<TRIPOS>MOLECULE
CHEMBL56073__1
   48    48     0     0     0
SMALL
USER_CHARGES

@<TRIPOS>ATOM
      1 C1         -0.0178    1.4648    0.0101 C.3       1 <0>        -0.0552
      2 N1          0.0021   -0.0041    0.0020 N.4       1 <0>        -0.3822
      3 C2          0.6897   -0.4778   -1.2066 C.3       1 <0>        -0.0075
      4 C3          2.1588   -0.0534   -1.1571 C.3       1 <0>        -0.1471
      5 C4          2.8749   -0.5468   -2.4159 C.3       1 <0>        -0.1115
      6 C5          4.3440   -0.1223   -2.3663 C.3       1 <0>        -0.0795
      7 C6          5.0494   -0.6083   -3.6062 C.ar      1 <0>        -0.0863
      8 C7          5.6446   -1.8559   -3.6186 C.ar      1 <0>        -0.1175
      9 C8          6.2916   -2.3017   -4.7559 C.ar      1 <0>        -0.1181
     10 C9          6.3431   -1.5001   -5.8810 C.ar      1 <0>        -0.1231
     11 C10         5.7471   -0.2529   -5.8688 C.ar      1 <0>        -0.1176
     12 C11         5.0964    0.1911   -4.7329 C.ar      1 <0>        -0.1166
     13 C12        -1.3761   -0.5125    0.0124 C.3       1 <0>        -0.0440
     14 C13        -2.0530   -0.1242    1.3284 C.3       1 <0>        -0.1343
     15 C14        -3.4884   -0.6537    1.3393 C.3       1 <0>        -1.0272
     16 O1         -3.4719   -2.0771    1.2140 O.3       1 <0>        -0.5040
     17 P1         -4.2950   -0.1910    2.9073 P.3       1 <0>         2.2286
     18 O2         -5.7445   -0.7257    2.9182 O.2       1 <0>        -1.0666
     19 O3         -3.5113   -0.8030    4.0898 O.3       1 <0>        -1.0934
     20 O4         -4.3136    1.4127    3.0484 O.3       1 <0>        -0.8826
     21 P2         -4.4131    0.0684   -0.0560 P.3       1 <0>         2.2858
     22 O5         -4.4310    1.6073    0.0794 O.2       1 <0>        -1.0829
     23 O6         -3.7295   -0.3238   -1.3849 O.3       1 <0>        -1.0968
     24 O7         -5.9235   -0.4889   -0.0446 O.3       1 <0>        -0.8757
     25 H1          1.0047    1.8421    0.0024 H         1 <0>         0.1143
     26 H2         -0.5450    1.8259   -0.8730 H         1 <0>         0.1281
     27 H3         -0.5280    1.8163    0.9069 H         1 <0>         0.1242
     28 H4          0.6271   -1.5648   -1.2578 H         1 <0>         0.1236
     29 H5          0.2159   -0.0447   -2.0875 H         1 <0>         0.1322
     30 H6          2.2214    1.0336   -1.1059 H         1 <0>         0.0868
     31 H7          2.6326   -0.4865   -0.2761 H         1 <0>         0.0819
     32 H8          2.8123   -1.6338   -2.4670 H         1 <0>         0.0738
     33 H9          2.4011   -0.1137   -3.2968 H         1 <0>         0.0765
     34 H10         4.4066    0.9647   -2.3152 H         1 <0>         0.0754
     35 H11         4.8178   -0.5554   -1.4854 H         1 <0>         0.0742
     36 H12         5.6044   -2.4822   -2.7397 H         1 <0>         0.1206
     37 H13         6.7573   -3.2761   -4.7654 H         1 <0>         0.1219
     38 H14         6.8492   -1.8481   -6.7693 H         1 <0>         0.1215
     39 H15         5.7876    0.3735   -6.7477 H         1 <0>         0.1226
     40 H16         4.6275    1.1640   -4.7247 H         1 <0>         0.1219
     41 H17        -1.9290   -0.0808   -0.8218 H         1 <0>         0.1876
     42 H18        -1.3635   -1.5983   -0.0831 H         1 <0>         0.1227
     43 H19        -1.5001   -0.5559    2.1627 H         1 <0>         0.0758
     44 H20        -2.0656    0.9616    1.4239 H         1 <0>         0.0938
     45 H21        -2.9957   -2.5290    1.9241 H         1 <0>         0.3544
     46 H22        -4.7291    1.7312    3.8614 H         1 <0>         0.4084
     47 H23        -6.4748   -0.1458   -0.7612 H         1 <0>         0.4044
     48 H24         0.4901   -0.3383    0.8195 H         1 <0>         0.4086
@<TRIPOS>BOND
     1    1    2 1
     2    1   25 1
     3    1   26 1
     4    1   27 1
     5    2    3 1
     6    2   13 1
     7    2   48 1
     8    3    4 1
     9    3   28 1
    10    3   29 1
    11    4    5 1
    12    4   30 1
    13    4   31 1
    14    5    6 1
    15    5   32 1
    16    5   33 1
    17    6    7 1
    18    6   34 1
    19    6   35 1
    20    7   12 ar
    21    7    8 ar
    22    8    9 ar
    23    8   36 1
    24    9   10 ar
    25    9   37 1
    26   10   11 ar
    27   10   38 1
    28   11   12 ar
    29   11   39 1
    30   12   40 1
    31   13   14 1
    32   13   41 1
    33   13   42 1
    34   14   15 1
    35   14   43 1
    36   14   44 1
    37   15   16 1
    38   15   17 1
    39   15   21 1
    40   16   45 1
    41   17   18 2
    42   17   19 1
    43   17   20 1
    44   20   46 1
    45   21   22 2
    46   21   23 1
    47   21   24 1
    48   24   47 1
@<TRIPOS>MOLECULE
CHEMBL237589
   50    49     0     0     0
SMALL
NO_CHARGES

@<TRIPOS>ATOM
      1 C1         -0.4882    0.2715   -1.5028 C.3       1 <0>        -0.1548
      2 C2         -0.2161   -1.2309   -1.4053 C.3       1 <0>        -0.1262
      3 C3          0.3108   -1.5642   -0.0082 C.3       1 <0>        -0.1215
      4 C4          0.5829   -3.0667    0.0892 C.3       1 <0>        -0.1216
      5 C5          1.1099   -3.4000    1.4864 C.3       1 <0>        -0.1212
      6 C6          1.3820   -4.9025    1.5838 C.3       1 <0>        -0.1213
      7 C7          1.9089   -5.2358    2.9810 C.3       1 <0>        -0.1218
      8 C8          2.1810   -6.7383    3.0784 C.3       1 <0>        -0.1134
      9 C9          2.7080   -7.0716    4.4756 C.3       1 <0>        -0.1203
     10 C10         2.9801   -8.5740    4.5730 C.3       1 <0>        -0.2388
     11 S1          3.6049   -8.9692    6.2295 S.3       1 <0>         0.5634
     12 C11         5.1429   -8.0555    6.5296 C.3       1 <0>        -0.2831
     13 C12         3.9275  -10.7506    6.3450 C.3       1 <0>        -0.2440
     14 C13         4.5850  -11.0636    7.6906 C.3       1 <0>        -0.9741
     15 P1          3.4124  -10.7019    9.0387 P.3       1 <0>         1.9182
     16 O1          3.2650   -9.1506    9.2005 O.2       1 <0>        -0.7642
     17 O2          2.0165  -11.3265    8.6983 O.3       1 <0>        -0.6374
     18 O3          3.9480  -11.3179   10.3760 O.3       1 <0>        -0.6367
     19 P2          5.0488  -12.8258    7.7450 P.3       1 <0>         2.1522
     20 O4          3.7986  -13.6956    7.4854 O.2       1 <0>        -0.8895
     21 O5          6.1102  -13.1127    6.6597 O.3       1 <0>        -0.9593
     22 O6          5.6550  -13.1767    9.1946 O.3       1 <0>        -0.8550
     23 H1          0.4359    0.8206   -1.3225 H         1 <0>         0.0534
     24 H2         -0.8637    0.5090   -2.4981 H         1 <0>         0.0544
     25 H3         -1.2309    0.5554   -0.7571 H         1 <0>         0.0538
     26 H4         -1.1403   -1.7800   -1.5856 H         1 <0>         0.0608
     27 H5          0.5265   -1.5148   -2.1510 H         1 <0>         0.0602
     28 H6          1.2350   -1.0152    0.1721 H         1 <0>         0.0605
     29 H7         -0.4318   -1.2804    0.7375 H         1 <0>         0.0614
     30 H8         -0.3413   -3.6158   -0.0910 H         1 <0>         0.0618
     31 H9          1.3255   -3.3505   -0.6564 H         1 <0>         0.0607
     32 H10         2.0341   -2.8510    1.6667 H         1 <0>         0.0611
     33 H11         0.3673   -3.1162    2.2321 H         1 <0>         0.0628
     34 H12         0.4578   -5.4515    1.4035 H         1 <0>         0.0647
     35 H13         2.1246   -5.1863    0.8382 H         1 <0>         0.0623
     36 H14         2.8331   -4.6867    3.1613 H         1 <0>         0.0650
     37 H15         1.1663   -4.9520    3.7267 H         1 <0>         0.0694
     38 H16         1.2569   -7.2873    2.8981 H         1 <0>         0.0777
     39 H17         2.9237   -7.0221    2.3327 H         1 <0>         0.0716
     40 H18         3.6322   -6.5225    4.6559 H         1 <0>         0.0812
     41 H19         1.9654   -6.7877    5.2213 H         1 <0>         0.1002
     42 H20         2.0559   -9.1231    4.3927 H         1 <0>         0.1662
     43 H21         3.7227   -8.8579    3.8273 H         1 <0>         0.1273
     44 H22         4.9688   -6.9906    6.3756 H         1 <0>         0.1639
     45 H23         5.4724   -8.2253    7.5546 H         1 <0>         0.1558
     46 H24         5.9118   -8.4015    5.8388 H         1 <0>         0.1251
     47 H25         2.9873  -11.2961    6.2645 H         1 <0>         0.2002
     48 H26         4.5931  -11.0525    5.5364 H         1 <0>         0.1780
     49 H27         5.4774  -10.4492    7.8106 H         1 <0>         0.1728
     50 H28         5.9239  -14.1001    9.2955 H         1 <0>         0.4380
@<TRIPOS>BOND
     1    1    2 1
     2    1   23 1
     3    1   24 1
     4    1   25 1
     5    2    3 1
     6    2   26 1
     7    2   27 1
     8    3    4 1
     9    3   28 1
    10    3   29 1
    11    4    5 1
    12    4   30 1
    13    4   31 1
    14    5    6 1
    15    5   32 1
    16    5   33 1
    17    6    7 1
    18    6   34 1
    19    6   35 1
    20    7    8 1
    21    7   36 1
    22    7   37 1
    23    8    9 1
    24    8   38 1
    25    8   39 1
    26    9   10 1
    27    9   40 1
    28    9   41 1
    29   10   11 1
    30   10   42 1
    31   10   43 1
    32   11   12 1
    33   11   13 1
    34   12   44 1
    35   12   45 1
    36   12   46 1
    37   13   14 1
    38   13   47 1
    39   13   48 1
    40   14   15 1
    41   14   19 1
    42   14   49 1
    43   15   16 2
    44   15   17 1
    45   15   18 1
    46   19   20 2
    47   19   21 1
    48   19   22 1
    49   22   50 1
@<TRIPOS>MOLECULE
CHEMBL237589__1
   51    50     0     0     0
SMALL
NO_CHARGES

@<TRIPOS>ATOM
      1 C1         -0.0502    1.9363   -0.7073 C.3       1 <0>        -0.1548
      2 C2         -0.0789    0.4072   -0.6625 C.3       1 <0>        -0.1262
      3 C3          0.6940   -0.1527   -1.8584 C.3       1 <0>        -0.1215
      4 C4          0.6652   -1.6818   -1.8136 C.3       1 <0>        -0.1215
      5 C5          1.4381   -2.2416   -3.0095 C.3       1 <0>        -0.1211
      6 C6          1.4094   -3.7707   -2.9647 C.3       1 <0>        -0.1212
      7 C7          2.1823   -4.3306   -4.1605 C.3       1 <0>        -0.1218
      8 C8          2.1535   -5.8597   -4.1157 C.3       1 <0>        -0.1136
      9 C9          2.9264   -6.4195   -5.3116 C.3       1 <0>        -0.1194
     10 C10         2.8976   -7.9486   -5.2668 C.3       1 <0>        -0.2447
     11 S1          3.8140   -8.6124   -6.6846 S.3       1 <0>         0.5685
     12 C11         3.0453   -8.0380   -8.2240 C.3       1 <0>        -0.2799
     13 C12         3.7799  -10.4253   -6.6315 C.3       1 <0>        -0.2282
     14 C13         4.6451  -10.9850   -7.7625 C.3       1 <0>        -1.1022
     15 P1          6.3911  -10.5559   -7.4612 P.3       1 <0>         2.1513
     16 O1          7.2982  -11.4337   -8.3521 O.2       1 <0>        -0.8368
     17 O2          6.6214   -9.0665   -7.8010 O.3       1 <0>        -0.9310
     18 O3          6.7478  -10.8145   -5.9127 O.3       1 <0>        -0.8574
     19 P2          4.4668  -12.7982   -7.8236 P.3       1 <0>         2.1881
     20 O4          4.8064  -13.3961   -6.4401 O.2       1 <0>        -0.8787
     21 O5          3.0122  -13.1603   -8.1981 O.3       1 <0>        -0.9262
     22 O6          5.4711  -13.3993   -8.9292 O.3       1 <0>        -0.8450
     23 H1          0.9829    2.2816   -0.6662 H         1 <0>         0.0538
     24 H2         -0.5121    2.2814   -1.6323 H         1 <0>         0.0534
     25 H3         -0.6008    2.3351    0.1446 H         1 <0>         0.0543
     26 H4          0.3830    0.0620    0.2625 H         1 <0>         0.0607
     27 H5         -1.1120    0.0619   -0.7037 H         1 <0>         0.0602
     28 H6          0.2321    0.1925   -2.7834 H         1 <0>         0.0606
     29 H7          1.7270    0.1926   -1.8172 H         1 <0>         0.0614
     30 H8          1.1271   -2.0269   -0.8886 H         1 <0>         0.0616
     31 H9         -0.3678   -2.0271   -1.8547 H         1 <0>         0.0606
     32 H10         0.9762   -1.8965   -3.9344 H         1 <0>         0.0612
     33 H11         2.4711   -1.8963   -2.9683 H         1 <0>         0.0628
     34 H12         1.8713   -4.1159   -2.0397 H         1 <0>         0.0644
     35 H13         0.3763   -4.1160   -3.0058 H         1 <0>         0.0621
     36 H14         1.7203   -3.9854   -5.0855 H         1 <0>         0.0649
     37 H15         3.2153   -3.9853   -4.1194 H         1 <0>         0.0693
     38 H16         2.6154   -6.2048   -3.1907 H         1 <0>         0.0768
     39 H17         1.1205   -6.2050   -4.1569 H         1 <0>         0.0708
     40 H18         2.4645   -6.0744   -6.2366 H         1 <0>         0.0804
     41 H19         3.9594   -6.0742   -5.2704 H         1 <0>         0.0996
     42 H20         3.3595   -8.2938   -4.3418 H         1 <0>         0.1628
     43 H21         1.8646   -8.2939   -5.3079 H         1 <0>         0.1242
     44 H22         2.0421   -8.4562   -8.3073 H         1 <0>         0.1223
     45 H23         2.9857   -6.9497   -8.2163 H         1 <0>         0.1595
     46 H24         3.6461   -8.3630   -9.0734 H         1 <0>         0.1563
     47 H25         4.1689  -10.7681   -5.6728 H         1 <0>         0.1863
     48 H26         2.7540  -10.7731   -6.7527 H         1 <0>         0.1568
     49 H27         4.3241  -10.5561   -8.7118 H         1 <0>         0.1658
     50 H28         7.6393  -10.5358   -5.6626 H         1 <0>         0.4370
     51 H29         5.4299  -14.3615   -9.0162 H         1 <0>         0.4334
@<TRIPOS>BOND
     1    1    2 1
     2    1   23 1
     3    1   24 1
     4    1   25 1
     5    2    3 1
     6    2   26 1
     7    2   27 1
     8    3    4 1
     9    3   28 1
    10    3   29 1
    11    4    5 1
    12    4   30 1
    13    4   31 1
    14    5    6 1
    15    5   32 1
    16    5   33 1
    17    6    7 1
    18    6   34 1
    19    6   35 1
    20    7    8 1
    21    7   36 1
    22    7   37 1
    23    8    9 1
    24    8   38 1
    25    8   39 1
    26    9   10 1
    27    9   40 1
    28    9   41 1
    29   10   11 1
    30   10   42 1
    31   10   43 1
    32   11   12 1
    33   11   13 1
    34   12   44 1
    35   12   45 1
    36   12   46 1
    37   13   14 1
    38   13   47 1
    39   13   48 1
    40   14   15 1
    41   14   19 1
    42   14   49 1
    43   15   16 2
    44   15   17 1
    45   15   18 1
    46   18   50 1
    47   19   20 2
    48   19   21 1
    49   19   22 1
    50   22   51 1
@<TRIPOS>MOLECULE
CHEMBL237589__2
   50    49     0     0     0
SMALL
NO_CHARGES

@<TRIPOS>ATOM
      1 C1         -1.9242   -0.8255   -1.8973 C.3       1 <0>        -0.1548
      2 C2         -1.6648   -2.3126   -1.6483 C.3       1 <0>        -0.1262
      3 C3         -0.8506   -2.4802   -0.3638 C.3       1 <0>        -0.1215
      4 C4         -0.5912   -3.9673   -0.1148 C.3       1 <0>        -0.1215
      5 C5          0.2230   -4.1349    1.1697 C.3       1 <0>        -0.1212
      6 C6          0.4824   -5.6220    1.4188 C.3       1 <0>        -0.1211
      7 C7          1.2966   -5.7896    2.7032 C.3       1 <0>        -0.1221
      8 C8          1.5561   -7.2767    2.9523 C.3       1 <0>        -0.1131
      9 C9          2.3702   -7.4443    4.2368 C.3       1 <0>        -0.1190
     10 C10         2.6297   -8.9314    4.4858 C.3       1 <0>        -0.2541
     11 S1          3.5950   -9.1301    6.0087 S.3       1 <0>         0.6251
     12 C11         2.6699   -8.4354    7.4059 C.3       1 <0>        -0.2896
     13 C12         3.9026  -10.8933    6.3040 C.3       1 <0>        -0.2469
     14 C13         4.5606  -11.0739    7.6734 C.3       1 <0>        -1.0260
     15 P1          4.7460  -12.8523    8.0287 P.3       1 <0>         1.9667
     16 O1          3.3314  -13.5232    8.0880 O.2       1 <0>        -0.7307
     17 O2          5.5960  -13.5250    6.8977 O.3       1 <0>        -0.6181
     18 O3          5.4697  -13.0370    9.4059 O.3       1 <0>        -0.6040
     19 P2          6.2022  -10.2810    7.6680 P.3       1 <0>         2.1383
     20 O4          6.9343  -10.6214    6.3508 O.2       1 <0>        -0.9298
     21 O5          6.0347   -8.7494    7.7832 O.3       1 <0>        -0.9687
     22 O6          7.0635  -10.8220    8.9160 O.3       1 <0>        -0.8648
     23 H1         -0.9732   -0.3028   -1.9992 H         1 <0>         0.0539
     24 H2         -2.5043   -0.7061   -2.8124 H         1 <0>         0.0542
     25 H3         -2.4801   -0.4081   -1.0578 H         1 <0>         0.0533
     26 H4         -2.6159   -2.8353   -1.5464 H         1 <0>         0.0600
     27 H5         -1.1089   -2.7301   -2.4879 H         1 <0>         0.0608
     28 H6          0.1005   -1.9575   -0.4657 H         1 <0>         0.0616
     29 H7         -1.4065   -2.0628    0.4758 H         1 <0>         0.0605
     30 H8         -1.5423   -4.4900   -0.0129 H         1 <0>         0.0604
     31 H9         -0.0353   -4.3848   -0.9543 H         1 <0>         0.0617
     32 H10         1.1741   -3.6122    1.0678 H         1 <0>         0.0631
     33 H11        -0.3329   -3.7175    2.0093 H         1 <0>         0.0611
     34 H12        -0.4686   -6.1447    1.5206 H         1 <0>         0.0617
     35 H13         1.0383   -6.0395    0.5792 H         1 <0>         0.0645
     36 H14         2.2477   -5.2669    2.6014 H         1 <0>         0.0700
     37 H15         0.7408   -5.3722    3.5428 H         1 <0>         0.0649
     38 H16         0.6050   -7.7994    3.0542 H         1 <0>         0.0700
     39 H17         2.1119   -7.6942    2.1127 H         1 <0>         0.0772
     40 H18         3.3213   -6.9217    4.1349 H         1 <0>         0.1013
     41 H19         1.8144   -7.0269    5.0763 H         1 <0>         0.0808
     42 H20         1.6786   -9.4541    4.5877 H         1 <0>         0.1223
     43 H21         3.1855   -9.3489    3.6462 H         1 <0>         0.1650
     44 H22         3.2112   -8.6286    8.3321 H         1 <0>         0.1524
     45 H23         2.5574   -7.3600    7.2685 H         1 <0>         0.1672
     46 H24         1.6853   -8.9002    7.4569 H         1 <0>         0.1194
     47 H25         2.9575  -11.4359    6.2806 H         1 <0>         0.1506
     48 H26         4.5637  -11.2815    5.5292 H         1 <0>         0.1989
     49 H27         3.9372  -10.6133    8.4397 H         1 <0>         0.1678
     50 H28         7.9506  -10.4417    8.9761 H         1 <0>         0.4387
@<TRIPOS>BOND
     1    1    2 1
     2    1   23 1
     3    1   24 1
     4    1   25 1
     5    2    3 1
     6    2   26 1
     7    2   27 1
     8    3    4 1
     9    3   28 1
    10    3   29 1
    11    4    5 1
    12    4   30 1
    13    4   31 1
    14    5    6 1
    15    5   32 1
    16    5   33 1
    17    6    7 1
    18    6   34 1
    19    6   35 1
    20    7    8 1
    21    7   36 1
    22    7   37 1
    23    8    9 1
    24    8   38 1
    25    8   39 1
    26    9   10 1
    27    9   40 1
    28    9   41 1
    29   10   11 1
    30   10   42 1
    31   10   43 1
    32   11   12 1
    33   11   13 1
    34   12   44 1
    35   12   45 1
    36   12   46 1
    37   13   14 1
    38   13   47 1
    39   13   48 1
    40   14   15 1
    41   14   19 1
    42   14   49 1
    43   15   16 2
    44   15   17 1
    45   15   18 1
    46   19   20 2
    47   19   21 1
    48   19   22 1
    49   22   50 1
@<TRIPOS>MOLECULE
CHEMBL237589__3
   51    50     0     0     0
SMALL
NO_CHARGES

@<TRIPOS>ATOM
      1 C1         -1.0045    0.2034    1.3010 C.3       1 <0>        -0.1548
      2 C2         -0.7860   -1.3049    1.1659 C.3       1 <0>        -0.1262
      3 C3         -0.1108   -1.6044   -0.1740 C.3       1 <0>        -0.1215
      4 C4          0.1077   -3.1127   -0.3091 C.3       1 <0>        -0.1215
      5 C5          0.7828   -3.4122   -1.6490 C.3       1 <0>        -0.1212
      6 C6          1.0013   -4.9205   -1.7841 C.3       1 <0>        -0.1211
      7 C7          1.6765   -5.2200   -3.1240 C.3       1 <0>        -0.1220
      8 C8          1.8950   -6.7283   -3.2591 C.3       1 <0>        -0.1133
      9 C9          2.5701   -7.0278   -4.5990 C.3       1 <0>        -0.1192
     10 C10         2.7886   -8.5361   -4.7341 C.3       1 <0>        -0.2494
     11 S1          3.5891   -8.8912   -6.3227 S.3       1 <0>         0.5919
     12 C11         5.1889   -8.0394   -6.3975 C.3       1 <0>        -0.2829
     13 C12         3.8482  -10.6795   -6.4829 C.3       1 <0>        -0.2286
     14 C13         4.6727  -10.9648   -7.7398 C.3       1 <0>        -1.1078
     15 P1          5.0818  -12.7400   -7.8081 P.3       1 <0>         2.1717
     16 O1          5.6037  -13.0943   -9.2185 O.2       1 <0>        -0.8042
     17 O2          6.1721  -13.0579   -6.7606 O.3       1 <0>        -0.9245
     18 O3          3.7631  -13.6073   -7.4903 O.3       1 <0>        -0.8570
     19 P2          3.7074  -10.5064   -9.2168 P.3       1 <0>         2.1606
     20 O4          2.2557  -11.0113   -9.0604 O.2       1 <0>        -0.9063
     21 O5          3.7041   -8.9693   -9.3731 O.3       1 <0>        -0.9328
     22 O6          4.3713  -11.1771  -10.5212 O.3       1 <0>        -0.8439
     23 H1         -0.0432    0.7152    1.2560 H         1 <0>         0.0534
     24 H2         -1.6404    0.5527    0.4875 H         1 <0>         0.0539
     25 H3         -1.4855    0.4168    2.2555 H         1 <0>         0.0542
     26 H4         -0.1500   -1.6542    1.9793 H         1 <0>         0.0601
     27 H5         -1.7473   -1.8167    1.2108 H         1 <0>         0.0607
     28 H6         -0.7468   -1.2551   -0.9875 H         1 <0>         0.0615
     29 H7          0.8505   -1.0926   -0.2190 H         1 <0>         0.0606
     30 H8          0.7436   -3.4620    0.5043 H         1 <0>         0.0605
     31 H9         -0.8536   -3.6245   -0.2642 H         1 <0>         0.0616
     32 H10         0.1469   -3.0629   -2.4625 H         1 <0>         0.0630
     33 H11         1.7441   -2.9004   -1.6940 H         1 <0>         0.0611
     34 H12         1.6373   -5.2698   -0.9707 H         1 <0>         0.0618
     35 H13         0.0400   -5.4323   -1.7392 H         1 <0>         0.0643
     36 H14         1.0405   -4.8707   -3.9374 H         1 <0>         0.0696
     37 H15         2.6378   -4.7082   -3.1689 H         1 <0>         0.0649
     38 H16         2.5309   -7.0776   -2.4457 H         1 <0>         0.0700
     39 H17         0.9337   -7.2402   -3.2142 H         1 <0>         0.0765
     40 H18         1.9342   -6.6785   -5.4124 H         1 <0>         0.1001
     41 H19         3.5314   -6.5160   -4.6439 H         1 <0>         0.0805
     42 H20         3.4246   -8.8854   -3.9207 H         1 <0>         0.1218
     43 H21         1.8273   -9.0480   -4.6892 H         1 <0>         0.1627
     44 H22         5.7940   -8.3267   -5.5376 H         1 <0>         0.1198
     45 H23         5.7065   -8.3182   -7.3154 H         1 <0>         0.1517
     46 H24         5.0276   -6.9615   -6.3844 H         1 <0>         0.1643
     47 H25         4.3812  -11.0493   -5.6070 H         1 <0>         0.1475
     48 H26         2.8834  -11.1809   -6.5597 H         1 <0>         0.1921
     49 H27         5.5925  -10.3808   -7.7112 H         1 <0>         0.1651
     50 H28         3.9071  -14.5633   -7.5094 H         1 <0>         0.4382
     51 H29         3.9086  -10.9752  -11.3459 H         1 <0>         0.4327
@<TRIPOS>BOND
     1    1    2 1
     2    1   23 1
     3    1   24 1
     4    1   25 1
     5    2    3 1
     6    2   26 1
     7    2   27 1
     8    3    4 1
     9    3   28 1
    10    3   29 1
    11    4    5 1
    12    4   30 1
    13    4   31 1
    14    5    6 1
    15    5   32 1
    16    5   33 1
    17    6    7 1
    18    6   34 1
    19    6   35 1
    20    7    8 1
    21    7   36 1
    22    7   37 1
    23    8    9 1
    24    8   38 1
    25    8   39 1
    26    9   10 1
    27    9   40 1
    28    9   41 1
    29   10   11 1
    30   10   42 1
    31   10   43 1
    32   11   12 1
    33   11   13 1
    34   12   44 1
    35   12   45 1
    36   12   46 1
    37   13   14 1
    38   13   47 1
    39   13   48 1
    40   14   15 1
    41   14   19 1
    42   14   49 1
    43   15   16 2
    44   15   17 1
    45   15   18 1
    46   18   50 1
    47   19   20 2
    48   19   21 1
    49   19   22 1
    50   22   51 1
@<TRIPOS>MOLECULE
CHEMBL235690
   44    43     0     0     0
SMALL
NO_CHARGES

@<TRIPOS>ATOM
      1 C1         -0.8587    0.4548    1.0121 C.3       1 <0>        -0.1553
      2 C2         -0.8726   -1.0495    0.7330 C.3       1 <0>        -0.1264
      3 C3          0.0821   -1.3631   -0.4207 C.3       1 <0>        -0.1217
      4 C4          0.0682   -2.8673   -0.6997 C.3       1 <0>        -0.1218
      5 C5          1.0229   -3.1809   -1.8535 C.3       1 <0>        -0.1219
      6 C6          1.0090   -4.6851   -2.1325 C.3       1 <0>        -0.1134
      7 C7          1.9637   -4.9987   -3.2862 C.3       1 <0>        -0.1203
      8 C8          1.9498   -6.5029   -3.5653 C.3       1 <0>        -0.2388
      9 S1          3.0817   -6.8747   -4.9332 S.3       1 <0>         0.5631
     10 C9          2.5500   -5.9792   -6.4184 C.3       1 <0>        -0.2829
     11 C10         3.0652   -8.6582   -5.2640 C.3       1 <0>        -0.2434
     12 C11         3.9095   -8.9545   -6.5051 C.3       1 <0>        -0.9779
     13 P1          5.6537   -8.5477   -6.1648 P.3       1 <0>         1.9206
     14 O1          5.8285   -6.9914   -6.1235 O.2       1 <0>        -0.7622
     15 O2          6.0721   -9.1571   -4.7835 O.3       1 <0>        -0.6363
     16 O3          6.5593   -9.1451   -7.2950 O.3       1 <0>        -0.6365
     17 P2          3.7691  -10.7222   -6.9277 P.3       1 <0>         2.1532
     18 O4          4.1909  -11.5774   -5.7121 O.2       1 <0>        -0.8902
     19 O5          2.3061  -11.0473   -7.3033 O.3       1 <0>        -0.9602
     20 O6          4.7301  -11.0535   -8.1763 O.3       1 <0>        -0.8549
     21 H1          0.1509    0.7650    1.2814 H         1 <0>         0.0544
     22 H2         -1.1782    0.9928    0.1196 H         1 <0>         0.0535
     23 H3         -1.5389    0.6781    1.8340 H         1 <0>         0.0551
     24 H4         -0.5531   -1.5876    1.6255 H         1 <0>         0.0615
     25 H5         -1.8823   -1.3597    0.4637 H         1 <0>         0.0604
     26 H6         -0.2374   -0.8250   -1.3131 H         1 <0>         0.0612
     27 H7          1.0917   -1.0528   -0.1513 H         1 <0>         0.0630
     28 H8          0.3877   -3.4054    0.1927 H         1 <0>         0.0648
     29 H9         -0.9414   -3.1776   -0.9691 H         1 <0>         0.0624
     30 H10         0.7034   -2.6428   -2.7459 H         1 <0>         0.0650
     31 H11         2.0325   -2.8706   -1.5841 H         1 <0>         0.0695
     32 H12         1.3285   -5.2232   -1.2401 H         1 <0>         0.0777
     33 H13        -0.0006   -4.9954   -2.4019 H         1 <0>         0.0716
     34 H14         1.6442   -4.4606   -4.1787 H         1 <0>         0.0812
     35 H15         2.9733   -4.6884   -3.0169 H         1 <0>         0.1002
     36 H16         2.2693   -7.0410   -2.6728 H         1 <0>         0.1661
     37 H17         0.9402   -6.8132   -3.8346 H         1 <0>         0.1273
     38 H18         2.4770   -4.9150   -6.1944 H         1 <0>         0.1639
     39 H19         3.2771   -6.1337   -7.2156 H         1 <0>         0.1558
     40 H20         1.5764   -6.3509   -6.7377 H         1 <0>         0.1251
     41 H21         3.4790   -9.1904   -4.4075 H         1 <0>         0.1996
     42 H22         2.0400   -8.9865   -5.4352 H         1 <0>         0.1775
     43 H23         3.5521   -8.3518   -7.3401 H         1 <0>         0.1725
     44 H24         4.7062  -11.9788   -8.4563 H         1 <0>         0.4378
@<TRIPOS>BOND
     1    1    2 1
     2    1   21 1
     3    1   22 1
     4    1   23 1
     5    2    3 1
     6    2   24 1
     7    2   25 1
     8    3    4 1
     9    3   26 1
    10    3   27 1
    11    4    5 1
    12    4   28 1
    13    4   29 1
    14    5    6 1
    15    5   30 1
    16    5   31 1
    17    6    7 1
    18    6   32 1
    19    6   33 1
    20    7    8 1
    21    7   34 1
    22    7   35 1
    23    8    9 1
    24    8   36 1
    25    8   37 1
    26    9   10 1
    27    9   11 1
    28   10   38 1
    29   10   39 1
    30   10   40 1
    31   11   12 1
    32   11   41 1
    33   11   42 1
    34   12   13 1
    35   12   17 1
    36   12   43 1
    37   13   14 2
    38   13   15 1
    39   13   16 1
    40   17   18 2
    41   17   19 1
    42   17   20 1
    43   20   44 1
@<TRIPOS>MOLECULE
CHEMBL235690__1
   45    44     0     0     0
SMALL
NO_CHARGES

@<TRIPOS>ATOM
      1 C1          0.5091    1.8732    0.2971 C.3       1 <0>        -0.1552
      2 C2          0.5085    0.3451    0.2192 C.3       1 <0>        -0.1263
      3 C3          1.1666   -0.2298    1.4751 C.3       1 <0>        -0.1217
      4 C4          1.1660   -1.7578    1.3973 C.3       1 <0>        -0.1217
      5 C5          1.8242   -2.3327    2.6531 C.3       1 <0>        -0.1219
      6 C6          1.8236   -3.8607    2.5753 C.3       1 <0>        -0.1136
      7 C7          2.4817   -4.4356    3.8311 C.3       1 <0>        -0.1193
      8 C8          2.4811   -5.9636    3.7533 C.3       1 <0>        -0.2447
      9 S1          3.2614   -6.6453    5.2423 S.3       1 <0>         0.5686
     10 C9          4.9698   -6.0464    5.3578 C.3       1 <0>        -0.2800
     11 C10         3.2607   -8.4569    5.1500 C.3       1 <0>        -0.2283
     12 C11         3.8166   -9.0342    6.4533 C.3       1 <0>        -1.1021
     13 P1          2.6765   -8.6502    7.8230 P.3       1 <0>         2.1513
     14 O1          3.0084   -9.5472    9.0363 O.2       1 <0>        -0.8369
     15 O2          2.8324   -7.1658    8.2220 O.3       1 <0>        -0.9309
     16 O3          1.1611   -8.9230    7.3524 O.3       1 <0>        -0.8574
     17 P2          3.9869  -10.8422    6.2932 P.3       1 <0>         2.1880
     18 O4          2.6282  -11.4532    5.8836 O.2       1 <0>        -0.8786
     19 O5          5.0437  -11.1663    5.2138 O.3       1 <0>        -0.9263
     20 O6          4.4518  -11.4644    7.7035 O.3       1 <0>        -0.8450
     21 H1          1.5356    2.2330    0.3665 H         1 <0>         0.0535
     22 H2          0.0402    2.2827   -0.5976 H         1 <0>         0.0549
     23 H3         -0.0482    2.1923    1.1779 H         1 <0>         0.0544
     24 H4         -0.5180   -0.0147    0.1498 H         1 <0>         0.0614
     25 H5          1.0657    0.0260   -0.6615 H         1 <0>         0.0604
     26 H6          2.1932    0.1301    1.5445 H         1 <0>         0.0613
     27 H7          0.6094    0.0894    2.3559 H         1 <0>         0.0630
     28 H8          0.1395   -2.1177    1.3278 H         1 <0>         0.0645
     29 H9          1.7233   -2.0769    0.5165 H         1 <0>         0.0622
     30 H10         2.8507   -1.9728    2.7226 H         1 <0>         0.0650
     31 H11         1.2669   -2.0136    3.5339 H         1 <0>         0.0694
     32 H12         0.7970   -4.2206    2.5058 H         1 <0>         0.0768
     33 H13         2.3808   -4.1799    1.6945 H         1 <0>         0.0708
     34 H14         3.5083   -4.0758    3.9006 H         1 <0>         0.0804
     35 H15         1.9245   -4.1165    4.7119 H         1 <0>         0.0996
     36 H16         1.4546   -6.3235    3.6839 H         1 <0>         0.1628
     37 H17         3.0384   -6.2828    2.8725 H         1 <0>         0.1242
     38 H18         5.5497   -6.4390    4.5225 H         1 <0>         0.1223
     39 H19         4.9760   -4.9569    5.3242 H         1 <0>         0.1596
     40 H20         5.4103   -6.3834    6.2962 H         1 <0>         0.1563
     41 H21         2.2413   -8.8127    5.0006 H         1 <0>         0.1863
     42 H22         3.8837   -8.7784    4.3153 H         1 <0>         0.1568
     43 H23         4.7924   -8.5941    6.6586 H         1 <0>         0.1658
     44 H24         0.4946   -8.6677    8.0049 H         1 <0>         0.4370
     45 H25         4.5627  -12.4249    7.6921 H         1 <0>         0.4334
@<TRIPOS>BOND
     1    1    2 1
     2    1   21 1
     3    1   22 1
     4    1   23 1
     5    2    3 1
     6    2   24 1
     7    2   25 1
     8    3    4 1
     9    3   26 1
    10    3   27 1
    11    4    5 1
    12    4   28 1
    13    4   29 1
    14    5    6 1
    15    5   30 1
    16    5   31 1
    17    6    7 1
    18    6   32 1
    19    6   33 1
    20    7    8 1
    21    7   34 1
    22    7   35 1
    23    8    9 1
    24    8   36 1
    25    8   37 1
    26    9   10 1
    27    9   11 1
    28   10   38 1
    29   10   39 1
    30   10   40 1
    31   11   12 1
    32   11   41 1
    33   11   42 1
    34   12   13 1
    35   12   17 1
    36   12   43 1
    37   13   14 2
    38   13   15 1
    39   13   16 1
    40   16   44 1
    41   17   18 2
    42   17   19 1
    43   17   20 1
    44   20   45 1
@<TRIPOS>MOLECULE
CHEMBL235690__2
   44    43     0     0     0
SMALL
NO_CHARGES

@<TRIPOS>ATOM
      1 C1         -0.5632   -0.4503    2.1994 C.3       1 <0>        -0.1553
      2 C2         -0.4399   -1.9360    1.8554 C.3       1 <0>        -0.1263
      3 C3          0.2696   -2.0905    0.5087 C.3       1 <0>        -0.1218
      4 C4          0.3929   -3.5762    0.1646 C.3       1 <0>        -0.1217
      5 C5          1.1023   -3.7307   -1.1821 C.3       1 <0>        -0.1221
      6 C6          1.2256   -5.2164   -1.5261 C.3       1 <0>        -0.1131
      7 C7          1.9351   -5.3709   -2.8728 C.3       1 <0>        -0.1190
      8 C8          2.0584   -6.8566   -3.2168 C.3       1 <0>        -0.2534
      9 S1          2.8995   -7.0398   -4.8135 S.3       1 <0>         0.6217
     10 C9          4.5541   -6.3030   -4.7134 C.3       1 <0>        -0.2888
     11 C10         3.0457   -8.8013   -5.2214 C.3       1 <0>        -0.2482
     12 C11         3.9070   -8.9647   -6.4753 C.3       1 <0>        -1.0238
     13 P1          4.1668  -10.7383   -6.8073 P.3       1 <0>         1.9672
     14 O1          4.9418  -11.3858   -5.6096 O.2       1 <0>        -0.7425
     15 O2          2.7796  -11.4467   -6.9756 O.3       1 <0>        -0.6063
     16 O3          5.0021  -10.9067   -8.1219 O.3       1 <0>        -0.6080
     17 P2          3.0622   -8.1977   -7.8971 P.3       1 <0>         2.1383
     18 O4          1.5644   -8.5758   -7.8713 O.2       1 <0>        -0.9303
     19 O5          3.2072   -6.6618   -7.8149 O.3       1 <0>        -0.9678
     20 O6          3.7259   -8.7270   -9.2651 O.3       1 <0>        -0.8619
     21 H1          0.4311   -0.0075    2.2596 H         1 <0>         0.0535
     22 H2         -1.1398    0.0554    1.4248 H         1 <0>         0.0545
     23 H3         -1.0686   -0.3402    3.1588 H         1 <0>         0.0548
     24 H4          0.1367   -2.4416    2.6299 H         1 <0>         0.0601
     25 H5         -1.4341   -2.3787    1.7952 H         1 <0>         0.0615
     26 H6         -0.3070   -1.5848   -0.2659 H         1 <0>         0.0632
     27 H7          1.2638   -1.6478    0.5688 H         1 <0>         0.0612
     28 H8          0.9695   -4.0819    0.9392 H         1 <0>         0.0618
     29 H9         -0.6013   -4.0189    0.1045 H         1 <0>         0.0646
     30 H10         0.5257   -3.2250   -1.9566 H         1 <0>         0.0701
     31 H11         2.0966   -3.2880   -1.1219 H         1 <0>         0.0650
     32 H12         1.8023   -5.7221   -0.7515 H         1 <0>         0.0701
     33 H13         0.2314   -5.6592   -1.5863 H         1 <0>         0.0772
     34 H14         1.3585   -4.8653   -3.6474 H         1 <0>         0.1013
     35 H15         2.9293   -4.9282   -2.8126 H         1 <0>         0.0809
     36 H16         2.6350   -7.3623   -2.4423 H         1 <0>         0.1225
     37 H17         1.0642   -7.2994   -3.2770 H         1 <0>         0.1649
     38 H18         5.0904   -6.4861   -5.6445 H         1 <0>         0.1525
     39 H19         4.4644   -5.2289   -4.5509 H         1 <0>         0.1671
     40 H20         5.1019   -6.7513   -3.8845 H         1 <0>         0.1194
     41 H21         3.5114   -9.3295   -4.3894 H         1 <0>         0.1522
     42 H22         2.0542   -9.2152   -5.4052 H         1 <0>         0.1972
     43 H23         4.8705   -8.4792   -6.3201 H         1 <0>         0.1694
     44 H24         3.3250   -8.3595  -10.0646 H         1 <0>         0.4382
@<TRIPOS>BOND
     1    1    2 1
     2    1   21 1
     3    1   22 1
     4    1   23 1
     5    2    3 1
     6    2   24 1
     7    2   25 1
     8    3    4 1
     9    3   26 1
    10    3   27 1
    11    4    5 1
    12    4   28 1
    13    4   29 1
    14    5    6 1
    15    5   30 1
    16    5   31 1
    17    6    7 1
    18    6   32 1
    19    6   33 1
    20    7    8 1
    21    7   34 1
    22    7   35 1
    23    8    9 1
    24    8   36 1
    25    8   37 1
    26    9   10 1
    27    9   11 1
    28   10   38 1
    29   10   39 1
    30   10   40 1
    31   11   12 1
    32   11   41 1
    33   11   42 1
    34   12   13 1
    35   12   17 1
    36   12   43 1
    37   13   14 2
    38   13   15 1
    39   13   16 1
    40   17   18 2
    41   17   19 1
    42   17   20 1
    43   20   44 1
@<TRIPOS>MOLECULE
CHEMBL235690__3
   45    44     0     0     0
SMALL
NO_CHARGES

@<TRIPOS>ATOM
      1 C1         -0.5248    0.4362   -1.2708 C.3       1 <0>        -0.1552
      2 C2         -0.4935   -1.0766   -1.0442 C.3       1 <0>        -0.1263
      3 C3          0.3341   -1.3883    0.2042 C.3       1 <0>        -0.1218
      4 C4          0.3654   -2.9011    0.4308 C.3       1 <0>        -0.1216
      5 C5          1.1931   -3.2128    1.6793 C.3       1 <0>        -0.1221
      6 C6          1.2244   -4.7256    1.9058 C.3       1 <0>        -0.1133
      7 C7          2.0521   -5.0373    3.1543 C.3       1 <0>        -0.1192
      8 C8          2.0834   -6.5501    3.3808 C.3       1 <0>        -0.2494
      9 S1          3.0648   -6.9196    4.8611 S.3       1 <0>         0.5919
     10 C9          2.3168   -6.1080    6.3006 C.3       1 <0>        -0.2829
     11 C10         3.1019   -8.7133    5.1297 C.3       1 <0>        -0.2286
     12 C11         3.7828   -9.0148    6.4662 C.3       1 <0>        -1.1079
     13 P1          3.6652  -10.7995    6.8191 P.3       1 <0>         2.1717
     14 O1          4.6313  -11.1618    7.9690 O.2       1 <0>        -0.8043
     15 O2          2.2181  -11.1483    7.2331 O.3       1 <0>        -0.9245
     16 O3          4.0624  -11.6345    5.5011 O.3       1 <0>        -0.8570
     17 P2          5.5371   -8.5271    6.3781 P.3       1 <0>         2.1606
     18 O4          6.1350   -8.9960    5.0328 O.2       1 <0>        -0.9062
     19 O5          5.6503   -6.9899    6.4841 O.3       1 <0>        -0.9329
     20 O6          6.3455   -9.2097    7.5916 O.3       1 <0>        -0.8439
     21 H1          0.4920    0.8042   -1.4078 H         1 <0>         0.0544
     22 H2         -1.1145    0.6583   -2.1602 H         1 <0>         0.0548
     23 H3         -0.9743    0.9239   -0.4058 H         1 <0>         0.0535
     24 H4         -1.5104   -1.4446   -0.9073 H         1 <0>         0.0602
     25 H5         -0.0441   -1.5643   -1.9093 H         1 <0>         0.0613
     26 H6          1.3510   -1.0203    0.0672 H         1 <0>         0.0631
     27 H7         -0.1153   -0.9006    1.0692 H         1 <0>         0.0613
     28 H8         -0.6514   -3.2691    0.5678 H         1 <0>         0.0619
     29 H9          0.8149   -3.3888   -0.4342 H         1 <0>         0.0644
     30 H10         2.2100   -2.8448    1.5423 H         1 <0>         0.0697
     31 H11         0.7437   -2.7251    2.5443 H         1 <0>         0.0650
     32 H12         0.2076   -5.0936    2.0428 H         1 <0>         0.0700
     33 H13         1.6739   -5.2133    1.0408 H         1 <0>         0.0766
     34 H14         3.0689   -4.6693    3.0173 H         1 <0>         0.1001
     35 H15         1.6027   -4.5496    4.0193 H         1 <0>         0.0806
     36 H16         1.0666   -6.9181    3.5178 H         1 <0>         0.1218
     37 H17         2.5329   -7.0378    2.5158 H         1 <0>         0.1627
     38 H18         1.2741   -6.4134    6.3889 H         1 <0>         0.1198
     39 H19         2.8574   -6.3965    7.2020 H         1 <0>         0.1517
     40 H20         2.3693   -5.0264    6.1759 H         1 <0>         0.1643
     41 H21         2.0827   -9.0994    5.1459 H         1 <0>         0.1475
     42 H22         3.6583   -9.1901    4.3227 H         1 <0>         0.1921
     43 H23         3.2893   -8.4542    7.2601 H         1 <0>         0.1651
     44 H24         4.0219  -12.5937    5.6162 H         1 <0>         0.4382
     45 H25         7.2879   -8.9934    7.6074 H         1 <0>         0.4328
@<TRIPOS>BOND
     1    1    2 1
     2    1   21 1
     3    1   22 1
     4    1   23 1
     5    2    3 1
     6    2   24 1
     7    2   25 1
     8    3    4 1
     9    3   26 1
    10    3   27 1
    11    4    5 1
    12    4   28 1
    13    4   29 1
    14    5    6 1
    15    5   30 1
    16    5   31 1
    17    6    7 1
    18    6   32 1
    19    6   33 1
    20    7    8 1
    21    7   34 1
    22    7   35 1
    23    8    9 1
    24    8   36 1
    25    8   37 1
    26    9   10 1
    27    9   11 1
    28   10   38 1
    29   10   39 1
    30   10   40 1
    31   11   12 1
    32   11   41 1
    33   11   42 1
    34   12   13 1
    35   12   17 1
    36   12   43 1
    37   13   14 2
    38   13   15 1
    39   13   16 1
    40   16   44 1
    41   17   18 2
    42   17   19 1
    43   17   20 1
    44   20   45 1
@<TRIPOS>MOLECULE
CHEMBL53950
   34    34     0     0     0
SMALL
USER_CHARGES

@<TRIPOS>ATOM
      1 C1         -0.2566    0.3149    0.3232 C.3       1 <0>        -0.1142
      2 C2          1.0334    1.0886    0.3598 C.3       1 <0>        -0.1280
      3 C3          1.3882    1.7082   -1.0054 C.3       1 <0>        -0.1038
      4 C4          1.1193    0.7523   -2.1834 C.3       1 <0>        -0.1227
      5 C5          1.5437   -0.6605   -1.8868 C.3       1 <0>        -0.0205
      6 C6          0.3231   -1.4366   -1.3515 C.3       1 <0>        -0.1268
      7 C7          0.0693   -1.1689    0.0564 C.3       1 <0>        -0.1181
      8 N1          2.0327   -1.2974   -3.1170 N.4       1 <0>        -0.4273
      9 C8          3.2679   -0.6335   -3.5545 C.3       1 <0>        -1.1479
     10 P1          4.5918   -0.9538   -2.3428 P.3       1 <0>         2.1349
     11 O1          4.2445   -0.2441   -0.9900 O.2       1 <0>        -1.1347
     12 O2          4.7200   -2.4970   -2.1051 O.3       1 <0>        -1.1252
     13 O3          5.9487   -0.3955   -2.8921 O.3       1 <0>        -1.1287
     14 P2          3.7641   -1.2852   -5.1831 P.3       1 <0>         2.2713
     15 O4          4.0074   -2.8071   -5.0764 O.2       1 <0>        -1.0716
     16 O5          2.6421   -1.0137   -6.2100 O.3       1 <0>        -1.1113
     17 O6          5.1179   -0.5575   -5.6626 O.3       1 <0>        -0.8697
     18 H1         -0.7685    0.4109    1.2808 H         1 <0>         0.0598
     19 H2         -0.8917    0.6995   -0.4748 H         1 <0>         0.0589
     20 H3          0.9453    1.8866    1.0971 H         1 <0>         0.0548
     21 H4          1.8380    0.4185    0.6628 H         1 <0>         0.0866
     22 H5          0.7969    2.6132   -1.1450 H         1 <0>         0.0513
     23 H6          2.4444    1.9776   -1.0054 H         1 <0>         0.0838
     24 H7          0.0526    0.7604   -2.4076 H         1 <0>         0.0620
     25 H8          1.6642    1.1081   -3.0577 H         1 <0>         0.0704
     26 H9          2.3330   -0.6556   -1.1351 H         1 <0>         0.1971
     27 H10        -0.5567   -1.1527   -1.9290 H         1 <0>         0.0661
     28 H11         0.4989   -2.5045   -1.4816 H         1 <0>         0.0756
     29 H12         0.9519   -1.4457    0.6330 H         1 <0>         0.0790
     30 H13        -0.7712   -1.7797    0.3859 H         1 <0>         0.0642
     31 H14         2.2199   -2.2728   -2.9393 H         1 <0>         0.4259
     32 H15         3.0963    0.4403   -3.6297 H         1 <0>         0.1237
     33 H16         5.4410   -0.8559   -6.5238 H         1 <0>         0.4005
     34 H17         1.3329   -1.2154   -3.8392 H         1 <0>         0.3848
@<TRIPOS>BOND
     1    1    7 1
     2    1    2 1
     3    1   18 1
     4    1   19 1
     5    2    3 1
     6    2   20 1
     7    2   21 1
     8    3    4 1
     9    3   22 1
    10    3   23 1
    11    4    5 1
    12    4   24 1
    13    4   25 1
    14    5    6 1
    15    5    8 1
    16    5   26 1
    17    6    7 1
    18    6   27 1
    19    6   28 1
    20    7   29 1
    21    7   30 1
    22    8    9 1
    23    8   31 1
    24    8   34 1
    25    9   10 1
    26    9   14 1
    27    9   32 1
    28   10   11 2
    29   10   12 1
    30   10   13 1
    31   14   15 2
    32   14   16 1
    33   14   17 1
    34   17   33 1
@<TRIPOS>MOLECULE
CHEMBL53950__1
   33    33     0     0     0
SMALL
USER_CHARGES

@<TRIPOS>ATOM
      1 C1         -0.2771    0.2827    0.3123 C.3       1 <0>        -0.1117
      2 C2          0.9983    1.0807    0.3431 C.3       1 <0>        -0.1259
      3 C3          1.3425    1.6949   -1.0273 C.3       1 <0>        -0.1020
      4 C4          1.0925    0.7239   -2.1970 C.3       1 <0>        -0.1219
      5 C5          1.5430   -0.6781   -1.8880 C.3       1 <0>        -0.0243
      6 C6          0.3366   -1.4722   -1.3467 C.3       1 <0>        -0.1298
      7 C7          0.0767   -1.1970    0.0586 C.3       1 <0>        -0.1137
      8 N1          2.0448   -1.3164   -3.1122 N.4       1 <0>        -0.4268
      9 C8          3.2679   -0.6335   -3.5545 C.3       1 <0>        -1.1311
     10 P1          4.5965   -0.9187   -2.3392 P.3       1 <0>         2.1894
     11 O1          4.2352   -0.2035   -0.9929 O.2       1 <0>        -1.1679
     12 O2          4.7526   -2.4572   -2.0876 O.3       1 <0>        -1.1524
     13 O3          5.9434   -0.3407   -2.8925 O.3       1 <0>        -1.1406
     14 P2          3.7775   -1.2898   -5.1771 P.3       1 <0>         2.1799
     15 O4          4.1510   -2.8046   -5.0338 O.2       1 <0>        -1.1464
     16 O5          2.5974   -1.1371   -6.1962 O.3       1 <0>        -1.1917
     17 O6          5.0220   -0.4919   -5.6957 O.3       1 <0>        -1.1412
     18 H1         -0.7914    0.3775    1.2686 H         1 <0>         0.0543
     19 H2         -0.9186    0.6484   -0.4895 H         1 <0>         0.0576
     20 H3          0.8946    1.8833    1.0733 H         1 <0>         0.0494
     21 H4          1.8150    0.4284    0.6524 H         1 <0>         0.0871
     22 H5          0.7345    2.5874   -1.1752 H         1 <0>         0.0455
     23 H6          2.3935    1.9840   -1.0289 H         1 <0>         0.0845
     24 H7          0.0261    0.7101   -2.4221 H         1 <0>         0.0536
     25 H8          1.6314    1.0823   -3.0741 H         1 <0>         0.0763
     26 H9          2.3314   -0.6519   -1.1357 H         1 <0>         0.1924
     27 H10        -0.5478   -1.2098   -1.9272 H         1 <0>         0.0606
     28 H11         0.5325   -2.5376   -1.4674 H         1 <0>         0.0722
     29 H12         0.9638   -1.4522    0.6383 H         1 <0>         0.0773
     30 H13        -0.7525   -1.8205    0.3929 H         1 <0>         0.0572
     31 H14         2.2499   -2.2866   -2.9259 H         1 <0>         0.4174
     32 H15         3.0765    0.4362   -3.6391 H         1 <0>         0.0966
     33 H16         1.3443   -1.2536   -3.8356 H         1 <0>         0.3763
@<TRIPOS>BOND
     1    1    7 1
     2    1    2 1
     3    1   18 1
     4    1   19 1
     5    2    3 1
     6    2   20 1
     7    2   21 1
     8    3    4 1
     9    3   22 1
    10    3   23 1
    11    4    5 1
    12    4   24 1
    13    4   25 1
    14    5    6 1
    15    5    8 1
    16    5   26 1
    17    6    7 1
    18    6   27 1
    19    6   28 1
    20    7   29 1
    21    7   30 1
    22    8    9 1
    23    8   31 1
    24    8   33 1
    25    9   10 1
    26    9   14 1
    27    9   32 1
    28   10   11 2
    29   10   12 1
    30   10   13 1
    31   14   15 2
    32   14   16 1
    33   14   17 1
@<TRIPOS>MOLECULE
CHEMBL997
   40    39     0     0     0
SMALL
USER_CHARGES

@<TRIPOS>ATOM
      1 C1         -0.0187    1.5258    0.0104 C.3       1 <0>        -0.1541
      2 C2          0.0021   -0.0041    0.0020 C.3       1 <0>        -0.1237
      3 C3         -1.4333   -0.5336    0.0129 C.3       1 <0>        -0.1183
      4 C4         -1.4126   -2.0635    0.0045 C.3       1 <0>        -0.1459
      5 C5         -2.8479   -2.5931    0.0153 C.3       1 <0>        -0.0068
      6 N1         -2.8280   -4.0619    0.0072 N.4       1 <0>        -0.3809
      7 C6         -2.2481   -4.5368   -1.2561 C.3       1 <0>        -0.0516
      8 C7         -4.1998   -4.5710    0.1383 C.3       1 <0>        -0.0362
      9 C8         -4.1687   -6.0962    0.2553 C.3       1 <0>        -0.1136
     10 C9         -5.5974   -6.6263    0.3918 C.3       1 <0>        -1.0257
     11 O1         -6.2018   -6.0711    1.5616 O.3       1 <0>        -0.5145
     12 P1         -6.5657   -6.1491   -1.0772 P.3       1 <0>         2.1991
     13 O2         -6.7053   -4.5894   -1.1265 O.2       1 <0>        -1.1679
     14 O3         -5.8347   -6.6490   -2.3696 O.3       1 <0>        -1.1492
     15 O4         -7.9892   -6.7986   -0.9981 O.3       1 <0>        -1.1572
     16 P2         -5.5605   -8.4436    0.5311 P.3       1 <0>         2.2761
     17 O5         -4.9071   -9.0439   -0.7337 O.2       1 <0>        -1.0901
     18 O6         -4.7399   -8.8481    1.7761 O.3       1 <0>        -1.1286
     19 O7         -7.0639   -9.0015    0.6748 O.3       1 <0>        -0.8701
     20 H1          1.0039    1.9031    0.0027 H         1 <0>         0.0534
     21 H2         -0.5459    1.8868   -0.8726 H         1 <0>         0.0561
     22 H3         -0.5289    1.8773    0.9072 H         1 <0>         0.0544
     23 H4          0.5123   -0.3556   -0.8948 H         1 <0>         0.0637
     24 H5          0.5293   -0.3651    0.8851 H         1 <0>         0.0616
     25 H6         -1.9435   -0.1821    0.9097 H         1 <0>         0.0702
     26 H7         -1.9605   -0.1726   -0.8702 H         1 <0>         0.0740
     27 H8         -0.9024   -2.4150   -0.8923 H         1 <0>         0.0846
     28 H9         -0.8854   -2.4246    0.8875 H         1 <0>         0.0777
     29 H10        -3.3581   -2.2415    0.9121 H         1 <0>         0.1193
     30 H11        -3.3751   -2.2320   -0.8677 H         1 <0>         0.1299
     31 H12        -1.2303   -4.1591   -1.3534 H         1 <0>         0.1056
     32 H13        -2.2333   -5.6267   -1.2621 H         1 <0>         0.1287
     33 H14        -2.8505   -4.1770   -2.0903 H         1 <0>         0.1270
     34 H15        -4.6607   -4.1474    1.0306 H         1 <0>         0.1135
     35 H16        -4.7787   -4.2856   -0.7400 H         1 <0>         0.1837
     36 H17        -3.7078   -6.5197   -0.6371 H         1 <0>         0.0954
     37 H18        -3.5898   -6.3815    1.1336 H         1 <0>         0.0498
     38 H19        -5.7384   -6.2850    2.3830 H         1 <0>         0.3201
     39 H20        -7.1205   -9.9637    0.7536 H         1 <0>         0.3888
     40 H21        -2.2705   -4.3950    0.7794 H         1 <0>         0.4019
@<TRIPOS>BOND
     1    1    2 1
     2    1   20 1
     3    1   21 1
     4    1   22 1
     5    2    3 1
     6    2   23 1
     7    2   24 1
     8    3    4 1
     9    3   25 1
    10    3   26 1
    11    4    5 1
    12    4   27 1
    13    4   28 1
    14    5    6 1
    15    5   29 1
    16    5   30 1
    17    6    7 1
    18    6    8 1
    19    6   40 1
    20    7   31 1
    21    7   32 1
    22    7   33 1
    23    8    9 1
    24    8   34 1
    25    8   35 1
    26    9   10 1
    27    9   36 1
    28    9   37 1
    29   10   11 1
    30   10   12 1
    31   10   16 1
    32   11   38 1
    33   12   13 2
    34   12   14 1
    35   12   15 1
    36   16   17 2
    37   16   18 1
    38   16   19 1
    39   19   39 1
@<TRIPOS>MOLECULE
CHEMBL997__1
   41    40     0     0     0
SMALL
USER_CHARGES

@<TRIPOS>ATOM
      1 C1         -0.0187    1.5258    0.0104 C.3       1 <0>        -0.1555
      2 C2          0.0021   -0.0041    0.0020 C.3       1 <0>        -0.1243
      3 C3          0.7182   -0.4975   -1.2568 C.3       1 <0>        -0.1183
      4 C4          0.7390   -2.0273   -1.2652 C.3       1 <0>        -0.1473
      5 C5          1.4551   -2.5207   -2.5240 C.3       1 <0>        -0.0075
      6 N1          1.4750   -3.9896   -2.5321 N.4       1 <0>        -0.3825
      7 C6          2.2868   -4.4745   -1.4079 C.3       1 <0>        -0.0570
      8 C7          2.0549   -4.4645   -3.7955 C.3       1 <0>        -0.0461
      9 C8          1.9619   -5.9904   -3.8576 C.3       1 <0>        -0.1347
     10 C9          2.5659   -6.4850   -5.1734 C.3       1 <0>        -1.0297
     11 O1          1.8461   -5.9189   -6.2705 O.3       1 <0>        -0.5033
     12 P1          4.3145   -5.9785   -5.2678 P.3       1 <0>         2.2719
     13 O2          4.9244   -6.4780   -6.5965 O.2       1 <0>        -1.0723
     14 O3          4.4085   -4.4376   -5.2051 O.3       1 <0>        -1.0874
     15 O4          5.1255   -6.6163   -4.0318 O.3       1 <0>        -0.8863
     16 P2          2.4551   -8.3031   -5.2474 P.3       1 <0>         2.2434
     17 O5          3.2333   -8.9152   -4.0613 O.2       1 <0>        -1.0788
     18 O6          0.9731   -8.7325   -5.1674 O.3       1 <0>        -1.0977
     19 O7          3.0906   -8.8236   -6.6321 O.3       1 <0>        -0.8741
     20 H1          1.0039    1.9031    0.0027 H         1 <0>         0.0564
     21 H2         -0.5459    1.8868   -0.8726 H         1 <0>         0.0555
     22 H3         -0.5289    1.8773    0.9072 H         1 <0>         0.0563
     23 H4          0.5293   -0.3651    0.8851 H         1 <0>         0.0640
     24 H5         -1.0205   -0.3814    0.0098 H         1 <0>         0.0631
     25 H6          0.1910   -0.1364   -2.1398 H         1 <0>         0.0719
     26 H7          1.7408   -0.1202   -1.2645 H         1 <0>         0.0740
     27 H8          1.2661   -2.3884   -0.3821 H         1 <0>         0.0852
     28 H9         -0.2836   -2.4046   -1.2575 H         1 <0>         0.0811
     29 H10         0.9279   -2.1597   -3.4071 H         1 <0>         0.1242
     30 H11         2.4777   -2.1435   -2.5317 H         1 <0>         0.1310
     31 H12         3.3046   -4.0968   -1.5051 H         1 <0>         0.1245
     32 H13         1.8565   -4.1221   -0.4704 H         1 <0>         0.1160
     33 H14         2.3016   -5.5644   -1.4138 H         1 <0>         0.1262
     34 H15         1.5059   -4.0327   -4.6323 H         1 <0>         0.1257
     35 H16         3.1005   -4.1616   -3.8519 H         1 <0>         0.1817
     36 H17         2.5109   -6.4222   -3.0208 H         1 <0>         0.0944
     37 H18         0.9164   -6.2933   -3.8012 H         1 <0>         0.0782
     38 H19         0.9065   -6.1472   -6.2841 H         1 <0>         0.3527
     39 H20         6.0650   -6.3880   -4.0181 H         1 <0>         0.4100
     40 H21         3.0656   -9.7843   -6.7398 H         1 <0>         0.4049
     41 H22         0.5328   -4.3392   -2.4420 H         1 <0>         0.4107
@<TRIPOS>BOND
     1    1    2 1
     2    1   20 1
     3    1   21 1
     4    1   22 1
     5    2    3 1
     6    2   23 1
     7    2   24 1
     8    3    4 1
     9    3   25 1
    10    3   26 1
    11    4    5 1
    12    4   27 1
    13    4   28 1
    14    5    6 1
    15    5   29 1
    16    5   30 1
    17    6    7 1
    18    6    8 1
    19    6   41 1
    20    7   31 1
    21    7   32 1
    22    7   33 1
    23    8    9 1
    24    8   34 1
    25    8   35 1
    26    9   10 1
    27    9   36 1
    28    9   37 1
    29   10   11 1
    30   10   12 1
    31   10   16 1
    32   11   38 1
    33   12   13 2
    34   12   14 1
    35   12   15 1
    36   15   39 1
    37   16   17 2
    38   16   18 1
    39   16   19 1
    40   19   40 1
@<TRIPOS>MOLECULE
CHEMBL55886
   25    25     0     0     0
SMALL
USER_CHARGES

@<TRIPOS>ATOM
      1 C1         -0.0167    1.3823    0.0096 C.ar      1 <0>        -0.1630
      2 C2          1.1808    2.0721    0.0019 C.ar      1 <0>         0.0435
      3 N1          2.3308    1.4269   -0.0130 N.ar      1 <0>        -0.5074
      4 C3          2.3867    0.1094   -0.0206 C.ar      1 <0>         0.0719
      5 C4          1.2303   -0.6473   -0.0132 C.ar      1 <0>        -0.0526
      6 C5          0.0021   -0.0041    0.0020 C.ar      1 <0>        -0.0149
      7 C6         -1.2819   -0.7930    0.0105 C.3       1 <0>        -0.0639
      8 C7         -1.7307   -1.0523   -1.4290 C.3       1 <0>        -1.0220
      9 O1         -1.9423    0.1948   -2.0939 O.3       1 <0>        -0.5122
     10 P1         -0.4423   -1.9977   -2.3063 P.3       1 <0>         2.2115
     11 O2          0.8540   -1.1262   -2.4269 O.2       1 <0>        -1.1579
     12 O3         -0.1195   -3.3061   -1.5074 O.3       1 <0>        -1.1611
     13 O4         -0.9543   -2.3733   -3.7385 O.3       1 <0>        -1.1748
     14 P2         -3.2839   -2.0067   -1.4187 P.3       1 <0>         2.2736
     15 O5         -3.0551   -3.3550   -0.6998 O.2       1 <0>        -1.0953
     16 O6         -4.3758   -1.2054   -0.6752 O.3       1 <0>        -1.1337
     17 O7         -3.7562   -2.2795   -2.9335 O.3       1 <0>        -0.8691
     18 H1         -0.9553    1.9163    0.0259 H         1 <0>         0.1048
     19 H2          1.1748    3.1521    0.0078 H         1 <0>         0.1262
     20 H3          3.3473   -0.3840   -0.0331 H         1 <0>         0.1355
     21 H4          1.2825   -1.7260   -0.0195 H         1 <0>         0.1390
     22 H5         -1.1205   -1.7443    0.5177 H         1 <0>         0.0838
     23 H6         -2.0522   -0.2277    0.5351 H         1 <0>         0.0448
     24 H7         -2.6165    0.7514   -1.6807 H         1 <0>         0.3122
     25 H8         -4.5783   -2.7837   -3.0044 H         1 <0>         0.3812
@<TRIPOS>BOND
     1    1    6 ar
     2    1    2 ar
     3    1   18 1
     4    2    3 ar
     5    2   19 1
     6    3    4 ar
     7    4    5 ar
     8    4   20 1
     9    5    6 ar
    10    5   21 1
    11    6    7 1
    12    7    8 1
    13    7   22 1
    14    7   23 1
    15    8    9 1
    16    8   10 1
    17    8   14 1
    18    9   24 1
    19   10   11 2
    20   10   12 1
    21   10   13 1
    22   14   15 2
    23   14   16 1
    24   14   17 1
    25   17   25 1
@<TRIPOS>MOLECULE
CHEMBL55886__1
   26    26     0     0     0
SMALL
USER_CHARGES

@<TRIPOS>ATOM
      1 C1         -0.0167    1.3823    0.0096 C.ar      1 <0>        -0.1527
      2 C2          1.1808    2.0721    0.0019 C.ar      1 <0>         0.0607
      3 N1          2.3308    1.4269   -0.0130 N.ar      1 <0>        -0.4968
      4 C3          2.3867    0.1094   -0.0206 C.ar      1 <0>         0.0847
      5 C4          1.2303   -0.6473   -0.0132 C.ar      1 <0>        -0.0660
      6 C5          0.0021   -0.0041    0.0020 C.ar      1 <0>        -0.0364
      7 C6         -1.2819   -0.7930    0.0105 C.3       1 <0>        -0.0761
      8 C7         -1.7307   -1.0523   -1.4290 C.3       1 <0>        -1.0259
      9 O1         -1.9423    0.1948   -2.0939 O.3       1 <0>        -0.5020
     10 P1         -0.4423   -1.9977   -2.3063 P.3       1 <0>         2.2714
     11 O2         -0.8956   -2.2595   -3.7599 O.2       1 <0>        -1.0883
     12 O3          0.8740   -1.1889   -2.3150 O.3       1 <0>        -1.0767
     13 O4         -0.2039   -3.4027   -1.5572 O.3       1 <0>        -0.8864
     14 P2         -3.2839   -2.0067   -1.4187 P.3       1 <0>         2.2447
     15 O5         -3.0551   -3.3550   -0.6998 O.2       1 <0>        -1.0858
     16 O6         -4.3758   -1.2054   -0.6752 O.3       1 <0>        -1.1044
     17 O7         -3.7562   -2.2795   -2.9335 O.3       1 <0>        -0.8739
     18 H1         -0.9553    1.9163    0.0259 H         1 <0>         0.1140
     19 H2          1.1748    3.1521    0.0078 H         1 <0>         0.1366
     20 H3          3.3473   -0.3840   -0.0331 H         1 <0>         0.1414
     21 H4          1.2825   -1.7260   -0.0195 H         1 <0>         0.1207
     22 H5         -1.1205   -1.7443    0.5177 H         1 <0>         0.0827
     23 H6         -2.0522   -0.2277    0.5351 H         1 <0>         0.0708
     24 H7         -2.6165    0.7514   -1.6807 H         1 <0>         0.3445
     25 H8          0.4703   -3.9593   -1.9704 H         1 <0>         0.4017
     26 H9         -4.5783   -2.7837   -3.0044 H         1 <0>         0.3975
@<TRIPOS>BOND
     1    1    6 ar
     2    1    2 ar
     3    1   18 1
     4    2    3 ar
     5    2   19 1
     6    3    4 ar
     7    4    5 ar
     8    4   20 1
     9    5    6 ar
    10    5   21 1
    11    6    7 1
    12    7    8 1
    13    7   22 1
    14    7   23 1
    15    8    9 1
    16    8   10 1
    17    8   14 1
    18    9   24 1
    19   10   11 2
    20   10   12 1
    21   10   13 1
    22   13   25 1
    23   14   15 2
    24   14   16 1
    25   14   17 1
    26   17   26 1
@<TRIPOS>MOLECULE
CHEMBL54480
   36    35     0     0     0
SMALL
USER_CHARGES

@<TRIPOS>ATOM
      1 C1         -1.7227    0.9167    0.7919 C.3       1 <0>        -0.1481
      2 C2         -1.3939   -0.5644    0.5938 C.3       1 <0>        -0.1325
      3 C3         -0.4970   -0.7277   -0.6349 C.3       1 <0>        -0.1102
      4 C4         -0.1682   -2.2088   -0.8330 C.3       1 <0>        -0.1452
      5 C5          0.7287   -2.3722   -2.0618 C.3       1 <0>        -0.1289
      6 C6          1.0576   -3.8532   -2.2598 C.3       1 <0>        -0.0236
      7 C7          2.0533   -4.0050   -3.4115 C.3       1 <0>        -0.1551
      8 N1         -0.1733   -4.5900   -2.5764 N.4       1 <0>        -0.4264
      9 C8          0.1217   -6.0272   -2.6508 C.3       1 <0>        -1.1497
     10 P1          0.5906   -6.6376   -0.9983 P.3       1 <0>         2.1345
     11 O1          1.9553   -5.9967   -0.5727 O.2       1 <0>        -1.1400
     12 O2         -0.5169   -6.2438    0.0375 O.3       1 <0>        -1.1219
     13 O3          0.7363   -8.1970   -1.0396 O.3       1 <0>        -1.1278
     14 P2         -1.3565   -6.9216   -3.2322 P.3       1 <0>         2.2707
     15 O4         -2.5223   -6.6856   -2.2461 O.2       1 <0>        -1.0712
     16 O5         -1.7539   -6.4043   -4.6327 O.3       1 <0>        -1.1111
     17 O6         -1.0332   -8.4967   -3.3138 O.3       1 <0>        -0.8695
     18 H1         -0.7996    1.4774    0.9387 H         1 <0>         0.0491
     19 H2         -2.2412    1.2948   -0.0893 H         1 <0>         0.0495
     20 H3         -2.3617    1.0331    1.6672 H         1 <0>         0.0511
     21 H4         -0.8755   -0.9424    1.4749 H         1 <0>         0.0674
     22 H5         -2.3170   -1.1250    0.4469 H         1 <0>         0.0679
     23 H6         -1.0154   -0.3497   -1.5161 H         1 <0>         0.0576
     24 H7          0.4262   -0.1671   -0.4881 H         1 <0>         0.0600
     25 H8          0.3503   -2.5869    0.0481 H         1 <0>         0.0888
     26 H9         -1.0913   -2.7694   -0.9799 H         1 <0>         0.0679
     27 H10         0.2103   -1.9941   -2.9429 H         1 <0>         0.0662
     28 H11         1.6519   -1.8115   -1.9149 H         1 <0>         0.0930
     29 H12         1.4957   -4.2536   -1.3456 H         1 <0>         0.1905
     30 H13         2.9666   -3.4583   -3.1767 H         1 <0>         0.0847
     31 H14         2.2875   -5.0601   -3.5527 H         1 <0>         0.0749
     32 H15         1.6151   -3.6047   -4.3258 H         1 <0>         0.0545
     33 H16        -0.8593   -4.4244   -1.8553 H         1 <0>         0.4245
     34 H17         0.9442   -6.1937   -3.3465 H         1 <0>         0.1237
     35 H18        -1.7768   -9.0357   -3.6167 H         1 <0>         0.4006
     36 H19        -0.5353   -4.2746   -3.4638 H         1 <0>         0.3843
@<TRIPOS>BOND
     1    1    2 1
     2    1   18 1
     3    1   19 1
     4    1   20 1
     5    2    3 1
     6    2   21 1
     7    2   22 1
     8    3    4 1
     9    3   23 1
    10    3   24 1
    11    4    5 1
    12    4   25 1
    13    4   26 1
    14    5    6 1
    15    5   27 1
    16    5   28 1
    17    6    7 1
    18    6    8 1
    19    6   29 1
    20    7   30 1
    21    7   31 1
    22    7   32 1
    23    8    9 1
    24    8   33 1
    25    8   36 1
    26    9   10 1
    27    9   14 1
    28    9   34 1
    29   10   11 2
    30   10   12 1
    31   10   13 1
    32   14   15 2
    33   14   16 1
    34   14   17 1
    35   17   35 1
@<TRIPOS>MOLECULE
CHEMBL54480__1
   35    34     0     0     0
SMALL
USER_CHARGES

@<TRIPOS>ATOM
      1 C1         -0.3471    1.7985   -0.2217 C.3       1 <0>        -0.1456
      2 C2         -0.2272    0.2732   -0.2343 C.3       1 <0>        -0.1337
      3 C3         -1.6158   -0.3488   -0.0743 C.3       1 <0>        -0.1077
      4 C4         -1.4959   -1.8741   -0.0868 C.3       1 <0>        -0.1460
      5 C5         -2.8845   -2.4962    0.0732 C.3       1 <0>        -0.1265
      6 C6         -2.7646   -4.0214    0.0606 C.3       1 <0>        -0.0296
      7 C7         -4.1621   -4.6432    0.0951 C.3       1 <0>        -0.1500
      8 N1         -2.0033   -4.4624    1.2370 N.4       1 <0>        -0.4242
      9 C8         -1.7927   -5.9146    1.1678 C.3       1 <0>        -1.1329
     10 P1         -0.6920   -6.3030   -0.2325 P.3       1 <0>         2.1863
     11 O1         -1.4177   -5.9604   -1.5779 O.2       1 <0>        -1.1731
     12 O2          0.6201   -5.4548   -0.1162 O.3       1 <0>        -1.1524
     13 O3         -0.3322   -7.8276   -0.2067 O.3       1 <0>        -1.1342
     14 P2         -1.0296   -6.4926    2.7192 P.3       1 <0>         2.1776
     15 O4          0.2896   -5.6896    2.9831 O.2       1 <0>        -1.1533
     16 O5         -2.0254   -6.2660    3.9072 O.3       1 <0>        -1.1912
     17 O6         -0.6969   -8.0190    2.6006 O.3       1 <0>        -1.1327
     18 H1          0.6422    2.2417   -0.3357 H         1 <0>         0.0488
     19 H2         -0.9860    2.1195   -1.0444 H         1 <0>         0.0470
     20 H3         -0.7829    2.1209    0.7239 H         1 <0>         0.0485
     21 H4          0.2086   -0.0492   -1.1799 H         1 <0>         0.0669
     22 H5          0.4118   -0.0478    0.5884 H         1 <0>         0.0695
     23 H6         -2.0516   -0.0264    0.8714 H         1 <0>         0.0559
     24 H7         -2.2547   -0.0278   -0.8970 H         1 <0>         0.0564
     25 H8         -1.0601   -2.1965   -1.0324 H         1 <0>         0.0869
     26 H9         -0.8570   -2.1951    0.7359 H         1 <0>         0.0717
     27 H10        -3.3203   -2.1738    1.0188 H         1 <0>         0.0610
     28 H11        -3.5234   -2.1752   -0.7495 H         1 <0>         0.0836
     29 H12        -2.2484   -4.3378   -0.8457 H         1 <0>         0.1854
     30 H13        -4.6397   -4.4111    1.0471 H         1 <0>         0.0497
     31 H14        -4.7607   -4.2370   -0.7202 H         1 <0>         0.0726
     32 H15        -4.0816   -5.7244   -0.0169 H         1 <0>         0.0782
     33 H16        -1.1100   -3.9935    1.2547 H         1 <0>         0.4177
     34 H17        -2.7510   -6.4143    1.0261 H         1 <0>         0.0963
     35 H18        -2.5182   -4.2368    2.0749 H         1 <0>         0.3734
@<TRIPOS>BOND
     1    1    2 1
     2    1   18 1
     3    1   19 1
     4    1   20 1
     5    2    3 1
     6    2   21 1
     7    2   22 1
     8    3    4 1
     9    3   23 1
    10    3   24 1
    11    4    5 1
    12    4   25 1
    13    4   26 1
    14    5    6 1
    15    5   27 1
    16    5   28 1
    17    6    7 1
    18    6    8 1
    19    6   29 1
    20    7   30 1
    21    7   31 1
    22    7   32 1
    23    8    9 1
    24    8   33 1
    25    8   35 1
    26    9   10 1
    27    9   14 1
    28    9   34 1
    29   10   11 2
    30   10   12 1
    31   10   13 1
    32   14   15 2
    33   14   16 1
    34   14   17 1
@<TRIPOS>MOLECULE
CHEMBL54480__2
   36    35     0     0     0
SMALL
USER_CHARGES

@<TRIPOS>ATOM
      1 C1         -0.7894    1.0853    0.3106 C.3       1 <0>        -0.1486
      2 C2         -0.5781   -0.4229    0.1640 C.3       1 <0>        -0.1323
      3 C3          0.2959   -0.6988   -1.0611 C.3       1 <0>        -0.1108
      4 C4          0.5071   -2.2070   -1.2077 C.3       1 <0>        -0.1461
      5 C5          1.3811   -2.4829   -2.4328 C.3       1 <0>        -0.1306
      6 C6          1.5924   -3.9911   -2.5794 C.3       1 <0>        -0.0282
      7 C7          2.3604   -4.2753   -3.8718 C.3       1 <0>        -0.1578
      8 N1          2.3619   -4.4916   -1.4325 N.4       1 <0>        -0.4278
      9 C8          2.4498   -5.9562   -1.5033 C.3       1 <0>        -1.1483
     10 P1          3.5545   -6.5631   -0.1863 P.3       1 <0>         2.1222
     11 O1          5.0061   -6.0286   -0.4348 O.2       1 <0>        -1.1553
     12 O2          3.0407   -6.0525    1.2028 O.3       1 <0>        -1.1242
     13 O3          3.5663   -8.1297   -0.1952 O.3       1 <0>        -1.1234
     14 P2          0.7894   -6.6760   -1.2833 P.3       1 <0>         2.2785
     15 O4          0.1585   -6.1277    0.0161 O.2       1 <0>        -1.0752
     16 O5         -0.1003   -6.2961   -2.4880 O.3       1 <0>        -1.1001
     17 O6          0.9076   -8.2788   -1.1877 O.3       1 <0>        -0.8661
     18 H1          0.1755    1.5770    0.4345 H         1 <0>         0.0504
     19 H2         -1.2821    1.4716   -0.5816 H         1 <0>         0.0489
     20 H3         -1.4120    1.2818    1.1834 H         1 <0>         0.0513
     21 H4         -0.0854   -0.8092    1.0563 H         1 <0>         0.0687
     22 H5         -1.5430   -0.9146    0.0402 H         1 <0>         0.0662
     23 H6         -0.1969   -0.3125   -1.9533 H         1 <0>         0.0600
     24 H7          1.2608   -0.2071   -0.9372 H         1 <0>         0.0593
     25 H8          0.9999   -2.5933   -0.3154 H         1 <0>         0.0702
     26 H9         -0.4577   -2.6987   -1.3316 H         1 <0>         0.0864
     27 H10         0.8884   -2.0966   -3.3251 H         1 <0>         0.0934
     28 H11         2.3460   -1.9912   -2.3089 H         1 <0>         0.0701
     29 H12         0.6249   -4.4918   -2.6141 H         1 <0>         0.1810
     30 H13         2.5387   -5.3469   -3.9604 H         1 <0>         0.0739
     31 H14         1.7751   -3.9326   -4.7251 H         1 <0>         0.0851
     32 H15         3.3146   -3.7487   -3.8507 H         1 <0>         0.0600
     33 H16         3.2905   -4.0975   -1.4528 H         1 <0>         0.4000
     34 H17         2.8472   -6.2498   -2.4749 H         1 <0>         0.1249
     35 H18         0.0602   -8.7293   -1.0698 H         1 <0>         0.3997
     36 H19         1.9013   -4.2233   -0.5757 H         1 <0>         0.4245
@<TRIPOS>BOND
     1    1    2 1
     2    1   18 1
     3    1   19 1
     4    1   20 1
     5    2    3 1
     6    2   21 1
     7    2   22 1
     8    3    4 1
     9    3   23 1
    10    3   24 1
    11    4    5 1
    12    4   25 1
    13    4   26 1
    14    5    6 1
    15    5   27 1
    16    5   28 1
    17    6    7 1
    18    6    8 1
    19    6   29 1
    20    7   30 1
    21    7   31 1
    22    7   32 1
    23    8    9 1
    24    8   33 1
    25    8   36 1
    26    9   10 1
    27    9   14 1
    28    9   34 1
    29   10   11 2
    30   10   12 1
    31   10   13 1
    32   14   15 2
    33   14   16 1
    34   14   17 1
    35   17   35 1
@<TRIPOS>MOLECULE
CHEMBL54480__3
   35    34     0     0     0
SMALL
USER_CHARGES

@<TRIPOS>ATOM
      1 C1         -0.6007    1.7381   -0.1268 C.3       1 <0>        -0.1457
      2 C2         -0.4563    0.2162   -0.0642 C.3       1 <0>        -0.1337
      3 C3         -1.8410   -0.4308   -0.1347 C.3       1 <0>        -0.1079
      4 C4         -1.6966   -1.9527   -0.0721 C.3       1 <0>        -0.1458
      5 C5         -3.0813   -2.5997   -0.1426 C.3       1 <0>        -0.1265
      6 C6         -2.9369   -4.1216   -0.0800 C.3       1 <0>        -0.0294
      7 C7         -4.3245   -4.7637   -0.0248 C.3       1 <0>        -0.1503
      8 N1         -2.2252   -4.5955   -1.2746 N.4       1 <0>        -0.4247
      9 C8         -2.0058   -6.0443   -1.1713 C.3       1 <0>        -1.1335
     10 P1         -1.3017   -6.6652   -2.7339 P.3       1 <0>         2.1786
     11 O1         -2.2957   -6.3700   -3.9084 O.2       1 <0>        -1.1915
     12 O2          0.0635   -5.9489   -3.0126 O.3       1 <0>        -1.1490
     13 O3         -1.0677   -8.2104   -2.6238 O.3       1 <0>        -1.1375
     14 P2         -0.8492   -6.3879    0.1953 P.3       1 <0>         2.1873
     15 O4          0.4577   -5.5470   -0.0028 O.2       1 <0>        -1.1501
     16 O5         -1.5193   -5.9986    1.5569 O.3       1 <0>        -1.1731
     17 O6         -0.4921   -7.9132    0.2063 O.3       1 <0>        -1.1376
     18 H1          0.3857    2.1990   -0.0766 H         1 <0>         0.0488
     19 H2         -1.0858    2.0189   -1.0617 H         1 <0>         0.0486
     20 H3         -1.2050    2.0806    0.7132 H         1 <0>         0.0471
     21 H4          0.1479   -0.1263   -0.9043 H         1 <0>         0.0693
     22 H5          0.0287   -0.0646    0.8706 H         1 <0>         0.0668
     23 H6         -2.4453   -0.0883    0.7053 H         1 <0>         0.0565
     24 H7         -2.3261   -0.1500   -1.0696 H         1 <0>         0.0560
     25 H8         -1.0923   -2.2952   -0.9122 H         1 <0>         0.0711
     26 H9         -1.2115   -2.2335    0.8627 H         1 <0>         0.0868
     27 H10        -3.6856   -2.2572    0.6974 H         1 <0>         0.0838
     28 H11        -3.5663   -2.3189   -1.0775 H         1 <0>         0.0611
     29 H12        -2.3735   -4.3967    0.8116 H         1 <0>         0.1855
     30 H13        -4.8879   -4.4885   -0.9165 H         1 <0>         0.0485
     31 H14        -4.2217   -5.8479    0.0198 H         1 <0>         0.0785
     32 H15        -4.8526   -4.4120    0.8615 H         1 <0>         0.0736
     33 H16        -2.7768   -4.3965   -2.0957 H         1 <0>         0.3746
     34 H17        -2.9556   -6.5427   -0.9774 H         1 <0>         0.0969
     35 H18        -1.3355   -4.1248   -1.3449 H         1 <0>         0.4169
@<TRIPOS>BOND
     1    1    2 1
     2    1   18 1
     3    1   19 1
     4    1   20 1
     5    2    3 1
     6    2   21 1
     7    2   22 1
     8    3    4 1
     9    3   23 1
    10    3   24 1
    11    4    5 1
    12    4   25 1
    13    4   26 1
    14    5    6 1
    15    5   27 1
    16    5   28 1
    17    6    7 1
    18    6    8 1
    19    6   29 1
    20    7   30 1
    21    7   31 1
    22    7   32 1
    23    8    9 1
    24    8   33 1
    25    8   35 1
    26    9   10 1
    27    9   14 1
    28    9   34 1
    29   10   11 2
    30   10   12 1
    31   10   13 1
    32   14   15 2
    33   14   16 1
    34   14   17 1
@<TRIPOS>MOLECULE
CHEMBL54714
   23    23     0     0     0
SMALL
USER_CHARGES

@<TRIPOS>ATOM
      1 C1         -0.0168    1.3850    0.0097 C.ar      1 <0>        -0.0524
      2 C2          1.1900    2.0615    0.0018 C.ar      1 <0>        -0.1395
      3 C3          2.3743    1.3325   -0.0135 C.ar      1 <0>         0.4164
      4 N1          2.3512    0.0087   -0.0203 N.ar      1 <0>        -0.5606
      5 C4          1.2160   -0.6638   -0.0131 C.ar      1 <0>         0.1433
      6 C5          0.0021   -0.0041    0.0020 C.ar      1 <0>        -0.1846
      7 Cl1        -1.4839   -0.9015    0.0120 Cl        1 <0>        -0.1252
      8 N2          3.5942    2.0003   -0.0220 N.pl3     1 <0>        -0.6116
      9 C6          3.6276    3.4649   -0.0149 C.3       1 <0>        -1.0388
     10 P1          3.2129    4.0741    1.6525 P.3       1 <0>         2.1814
     11 O1          1.7784    3.5826    2.0463 O.2       1 <0>        -1.1657
     12 O2          4.2553    3.5230    2.6840 O.3       1 <0>        -1.1492
     13 O3          3.2486    5.6404    1.6600 O.3       1 <0>        -1.1700
     14 P2          5.2968    4.0369   -0.4732 P.3       1 <0>         2.2844
     15 O4          6.3247    3.4934    0.5441 O.2       1 <0>        -1.0861
     16 O5          5.6482    3.5205   -1.8863 O.3       1 <0>        -1.1292
     17 O6          5.3335    5.6464   -0.4654 O.3       1 <0>        -0.8777
     18 H1         -0.9522    1.9246    0.0259 H         1 <0>         0.1218
     19 H2          1.2120    3.1413    0.0070 H         1 <0>         0.1494
     20 H3          1.2359   -1.7436   -0.0191 H         1 <0>         0.1400
     21 H4          4.4229    1.4963   -0.0326 H         1 <0>         0.3998
     22 H5          2.9023    3.8483   -0.7326 H         1 <0>         0.0649
     23 H6          6.1932    6.0214   -0.7006 H         1 <0>         0.3890
@<TRIPOS>BOND
     1    1    6 ar
     2    1    2 ar
     3    1   18 1
     4    2    3 ar
     5    2   19 1
     6    3    4 ar
     7    3    8 1
     8    4    5 ar
     9    5    6 ar
    10    5   20 1
    11    6    7 1
    12    8    9 1
    13    8   21 1
    14    9   10 1
    15    9   14 1
    16    9   22 1
    17   10   11 2
    18   10   12 1
    19   10   13 1
    20   14   15 2
    21   14   16 1
    22   14   17 1
    23   17   23 1
@<TRIPOS>MOLECULE
CHEMBL54714__1
   24    24     0     0     0
SMALL
USER_CHARGES

@<TRIPOS>ATOM
      1 C1         -0.0168    1.3850    0.0097 C.ar      1 <0>        -0.0377
      2 C2          1.1900    2.0615    0.0018 C.ar      1 <0>        -0.1579
      3 C3          2.3743    1.3325   -0.0135 C.ar      1 <0>         0.4089
      4 N1          2.3512    0.0087   -0.0203 N.ar      1 <0>        -0.5448
      5 C4          1.2160   -0.6638   -0.0131 C.ar      1 <0>         0.1466
      6 C5          0.0021   -0.0041    0.0020 C.ar      1 <0>        -0.1664
      7 Cl1        -1.4839   -0.9015    0.0120 Cl        1 <0>        -0.1008
      8 N2          3.5942    2.0003   -0.0220 N.pl3     1 <0>        -0.6474
      9 C6          3.6276    3.4649   -0.0149 C.3       1 <0>        -1.0364
     10 P1          3.2129    4.0741    1.6525 P.3       1 <0>         2.2481
     11 O1          3.2482    5.6187    1.6599 O.2       1 <0>        -1.0875
     12 O2          1.7983    3.5894    2.0408 O.3       1 <0>        -1.0890
     13 O3          4.2841    3.5078    2.7126 O.3       1 <0>        -0.8767
     14 P2          5.2968    4.0369   -0.4732 P.3       1 <0>         2.2553
     15 O4          6.3247    3.4934    0.5441 O.2       1 <0>        -1.0793
     16 O5          5.6482    3.5205   -1.8863 O.3       1 <0>        -1.0996
     17 O6          5.3335    5.6464   -0.4654 O.3       1 <0>        -0.8800
     18 H1         -0.9522    1.9246    0.0259 H         1 <0>         0.1320
     19 H2          1.2120    3.1413    0.0070 H         1 <0>         0.1479
     20 H3          1.2359   -1.7436   -0.0191 H         1 <0>         0.1507
     21 H4          4.4229    1.4963   -0.0326 H         1 <0>         0.4071
     22 H5          2.9023    3.8483   -0.7326 H         1 <0>         0.1041
     23 H6          4.1249    3.7924    3.6229 H         1 <0>         0.3991
     24 H7          6.1932    6.0214   -0.7006 H         1 <0>         0.4037
@<TRIPOS>BOND
     1    1    6 ar
     2    1    2 ar
     3    1   18 1
     4    2    3 ar
     5    2   19 1
     6    3    4 ar
     7    3    8 1
     8    4    5 ar
     9    5    6 ar
    10    5   20 1
    11    6    7 1
    12    8    9 1
    13    8   21 1
    14    9   10 1
    15    9   14 1
    16    9   22 1
    17   10   11 2
    18   10   12 1
    19   10   13 1
    20   13   23 1
    21   14   15 2
    22   14   16 1
    23   14   17 1
    24   17   24 1
@<TRIPOS>MOLECULE
CHEMBL98110
   24    24     0     0     0
SMALL
USER_CHARGES

@<TRIPOS>ATOM
      1 C1         -0.0167    1.3776    0.0096 C.ar      1 <0>        -0.2277
      2 C2          1.1849    2.0698    0.0019 C.ar      1 <0>        -0.0934
      3 C3          2.3651    1.3426   -0.0133 C.ar      1 <0>        -0.1147
      4 C4          2.3054   -0.0383   -0.0202 C.ar      1 <0>         0.2219
      5 N1          1.1443   -0.6632   -0.0129 N.ar      1 <0>        -0.5002
      6 C5          0.0021   -0.0041    0.0020 C.ar      1 <0>         0.0700
      7 C6          3.6964    2.0488   -0.0227 C.3       1 <0>        -0.0106
      8 C7          4.1610    2.2805    1.4165 C.3       1 <0>        -1.2761
      9 P1          4.4727    0.6744    2.2204 P.3       1 <0>         2.2144
     10 O1          3.1538   -0.1710    2.2271 O.2       1 <0>        -1.1605
     11 O2          5.5840   -0.0978    1.4309 O.3       1 <0>        -1.1614
     12 O3          4.9484    0.9116    3.6942 O.3       1 <0>        -1.1842
     13 P2          5.6958    3.2642    1.4087 P.3       1 <0>         2.2994
     14 O4          6.7916    2.5027    0.6301 O.2       1 <0>        -1.1005
     15 O5          5.4315    4.6255    0.7273 O.3       1 <0>        -1.1450
     16 O6          6.1846    3.5081    2.9232 O.3       1 <0>        -0.8819
     17 H1         -0.9552    1.9117    0.0259 H         1 <0>         0.1032
     18 H2          1.2009    3.1496    0.0072 H         1 <0>         0.1070
     19 H3          3.2203   -0.6121   -0.0320 H         1 <0>         0.1617
     20 H4         -0.9294   -0.5505    0.0083 H         1 <0>         0.1261
     21 H5          4.4293    1.4355   -0.5468 H         1 <0>         0.0751
     22 H6          3.5953    3.0079   -0.5308 H         1 <0>         0.0386
     23 H7          3.3879    2.8178    1.9658 H         1 <0>         0.0564
     24 H8          6.9981    4.0260    2.9953 H         1 <0>         0.3823
@<TRIPOS>BOND
     1    1    6 ar
     2    1    2 ar
     3    1   17 1
     4    2    3 ar
     5    2   18 1
     6    3    4 ar
     7    3    7 1
     8    4    5 ar
     9    4   19 1
    10    5    6 ar
    11    6   20 1
    12    7    8 1
    13    7   21 1
    14    7   22 1
    15    8    9 1
    16    8   13 1
    17    8   23 1
    18    9   10 2
    19    9   11 1
    20    9   12 1
    21   13   14 2
    22   13   15 1
    23   13   16 1
    24   16   24 1
@<TRIPOS>MOLECULE
CHEMBL98110__1
   25    25     0     0     0
SMALL
USER_CHARGES

@<TRIPOS>ATOM
      1 C1         -0.0167    1.3776    0.0096 C.ar      1 <0>        -0.1891
      2 C2          1.1849    2.0698    0.0019 C.ar      1 <0>        -0.0785
      3 C3          2.3651    1.3426   -0.0133 C.ar      1 <0>        -0.1187
      4 C4          2.3054   -0.0383   -0.0202 C.ar      1 <0>         0.1485
      5 N1          1.1443   -0.6632   -0.0129 N.ar      1 <0>        -0.4789
      6 C5          0.0021   -0.0041    0.0020 C.ar      1 <0>         0.0776
      7 C6          3.6964    2.0488   -0.0227 C.3       1 <0>        -0.0277
      8 C7          4.1610    2.2805    1.4165 C.3       1 <0>        -1.2827
      9 P1          4.4727    0.6744    2.2204 P.3       1 <0>         2.2687
     10 O1          5.2870    0.8957    3.5146 O.2       1 <0>        -1.0958
     11 O2          3.1257    0.0024    2.5681 O.3       1 <0>        -1.1005
     12 O3          5.3033   -0.2745    1.2195 O.3       1 <0>        -0.8891
     13 P2          5.6958    3.2642    1.4087 P.3       1 <0>         2.2869
     14 O4          6.7916    2.5027    0.6301 O.2       1 <0>        -1.1024
     15 O5          5.4315    4.6255    0.7273 O.3       1 <0>        -1.1201
     16 O6          6.1846    3.5081    2.9232 O.3       1 <0>        -0.8793
     17 H1         -0.9552    1.9117    0.0259 H         1 <0>         0.1207
     18 H2          1.2009    3.1496    0.0072 H         1 <0>         0.1219
     19 H3          3.2203   -0.6121   -0.0320 H         1 <0>         0.1524
     20 H4         -0.9294   -0.5505    0.0083 H         1 <0>         0.1424
     21 H5          4.4293    1.4355   -0.5468 H         1 <0>         0.0800
     22 H6          3.5953    3.0079   -0.5308 H         1 <0>         0.0673
     23 H7          3.3879    2.8178    1.9658 H         1 <0>         0.1008
     24 H8          5.5053   -1.1478    1.5824 H         1 <0>         0.3997
     25 H9          6.9981    4.0260    2.9953 H         1 <0>         0.3960
@<TRIPOS>BOND
     1    1    6 ar
     2    1    2 ar
     3    1   17 1
     4    2    3 ar
     5    2   18 1
     6    3    4 ar
     7    3    7 1
     8    4    5 ar
     9    4   19 1
    10    5    6 ar
    11    6   20 1
    12    7    8 1
    13    7   21 1
    14    7   22 1
    15    8    9 1
    16    8   13 1
    17    8   23 1
    18    9   10 2
    19    9   11 1
    20    9   12 1
    21   12   24 1
    22   13   14 2
    23   13   15 1
    24   13   16 1
    25   16   25 1
@<TRIPOS>MOLECULE
CHEMBL55464
   44    44     0     0     0
SMALL
USER_CHARGES

@<TRIPOS>ATOM
      1 C1         -0.0167    1.3781    0.0096 C.ar      1 <0>        -0.1260
      2 C2          1.1709    2.0855    0.0021 C.ar      1 <0>        -0.1197
      3 C3          2.3773    1.4107   -0.0130 C.ar      1 <0>        -0.1179
      4 C4          2.3960    0.0285   -0.0201 C.ar      1 <0>        -0.0822
      5 C5          1.2084   -0.6789   -0.0117 C.ar      1 <0>        -0.1158
      6 C6          0.0021   -0.0041    0.0020 C.ar      1 <0>        -0.1179
      7 C7          3.7112   -0.7071   -0.0376 C.3       1 <0>        -0.0806
      8 C8          4.1714   -0.9633    1.3989 C.3       1 <0>        -0.1120
      9 C9          5.5066   -1.7102    1.3812 C.3       1 <0>        -0.1468
     10 C10         5.9667   -1.9663    2.8177 C.3       1 <0>        -0.0070
     11 N1          7.2487   -2.6834    2.8007 N.4       1 <0>        -0.5047
     12 C11         7.6906   -2.9294    4.1799 C.3       1 <0>        -0.0369
     13 C12         9.0258   -3.6762    4.1622 C.3       1 <0>        -0.1162
     14 C13         9.4859   -3.9324    5.5987 C.3       1 <0>        -1.0257
     15 O1          9.6469   -2.6849    6.2769 O.3       1 <0>        -0.5143
     16 P1          8.2380   -4.9391    6.4661 P.3       1 <0>         2.1979
     17 O2          6.9072   -4.1227    6.5966 O.2       1 <0>        -1.1671
     18 O3          7.9683   -6.2510    5.6533 O.3       1 <0>        -1.1490
     19 O4          8.7660   -5.3088    7.8941 O.3       1 <0>        -1.1562
     20 P2         11.0768   -4.8223    5.5775 P.3       1 <0>         2.2765
     21 O5         10.9028   -6.1710    4.8443 O.2       1 <0>        -1.0898
     22 O6         12.1345   -3.9691    4.8423 O.3       1 <0>        -1.1285
     23 O7         11.5611   -5.0918    7.0891 O.3       1 <0>        -0.8701
     24 H1         -0.9591    1.9053    0.0259 H         1 <0>         0.1197
     25 H2          1.1563    3.1654    0.0076 H         1 <0>         0.1203
     26 H3          3.3051    1.9634   -0.0196 H         1 <0>         0.1206
     27 H4          1.2231   -1.7588   -0.0176 H         1 <0>         0.1233
     28 H5         -0.9258   -0.5567    0.0082 H         1 <0>         0.1217
     29 H6          3.5884   -1.6586   -0.5549 H         1 <0>         0.0762
     30 H7          4.4573   -0.1052   -0.5563 H         1 <0>         0.0736
     31 H8          4.2941   -0.0118    1.9163 H         1 <0>         0.0728
     32 H9          3.4252   -1.5652    1.9176 H         1 <0>         0.0775
     33 H10         5.3838   -2.6617    0.8639 H         1 <0>         0.0857
     34 H11         6.2527   -1.1082    0.8625 H         1 <0>         0.0799
     35 H12         6.0895   -1.0148    3.3350 H         1 <0>         0.1215
     36 H13         5.2206   -2.5682    3.3364 H         1 <0>         0.1343
     37 H14         7.1351   -3.5642    2.3218 H         1 <0>         0.4220
     38 H15         7.8133   -1.9778    4.6972 H         1 <0>         0.1158
     39 H16         6.9444   -3.5313    4.6986 H         1 <0>         0.1845
     40 H17         8.9030   -4.6278    3.6448 H         1 <0>         0.0949
     41 H18         9.7719   -3.0743    3.6435 H         1 <0>         0.0517
     42 H19        10.2974   -2.0968    5.8695 H         1 <0>         0.3201
     43 H20        12.4031   -5.5628    7.1543 H         1 <0>         0.3889
     44 H21         7.9394   -2.1262    2.3205 H         1 <0>         0.4049
@<TRIPOS>BOND
     1    1    6 ar
     2    1    2 ar
     3    1   24 1
     4    2    3 ar
     5    2   25 1
     6    3    4 ar
     7    3   26 1
     8    4    5 ar
     9    4    7 1
    10    5    6 ar
    11    5   27 1
    12    6   28 1
    13    7    8 1
    14    7   29 1
    15    7   30 1
    16    8    9 1
    17    8   31 1
    18    8   32 1
    19    9   10 1
    20    9   33 1
    21    9   34 1
    22   10   11 1
    23   10   35 1
    24   10   36 1
    25   11   12 1
    26   11   37 1
    27   11   44 1
    28   12   13 1
    29   12   38 1
    30   12   39 1
    31   13   14 1
    32   13   40 1
    33   13   41 1
    34   14   15 1
    35   14   16 1
    36   14   20 1
    37   15   42 1
    38   16   17 2
    39   16   18 1
    40   16   19 1
    41   20   21 2
    42   20   22 1
    43   20   23 1
    44   23   43 1
@<TRIPOS>MOLECULE
CHEMBL55464__1
   45    45     0     0     0
SMALL
USER_CHARGES

@<TRIPOS>ATOM
      1 C1         -0.0167    1.3781    0.0096 C.ar      1 <0>        -0.1230
      2 C2          1.1709    2.0855    0.0021 C.ar      1 <0>        -0.1173
      3 C3          2.3773    1.4107   -0.0130 C.ar      1 <0>        -0.1164
      4 C4          2.3960    0.0285   -0.0201 C.ar      1 <0>        -0.0866
      5 C5          1.2084   -0.6789   -0.0117 C.ar      1 <0>        -0.1177
      6 C6          0.0021   -0.0041    0.0020 C.ar      1 <0>        -0.1183
      7 C7          3.7112   -0.7071   -0.0376 C.3       1 <0>        -0.0798
      8 C8          4.1714   -0.9633    1.3989 C.3       1 <0>        -0.1120
      9 C9          5.5066   -1.7102    1.3812 C.3       1 <0>        -0.1481
     10 C10         5.9667   -1.9663    2.8177 C.3       1 <0>        -0.0075
     11 N1          7.2487   -2.6834    2.8007 N.4       1 <0>        -0.5059
     12 C11         7.6906   -2.9294    4.1799 C.3       1 <0>        -0.0446
     13 C12         9.0258   -3.6762    4.1622 C.3       1 <0>        -0.1366
     14 C13         9.4859   -3.9324    5.5987 C.3       1 <0>        -1.0274
     15 O1          8.5077   -4.7215    6.2787 O.3       1 <0>        -0.5038
     16 P1         11.0768   -4.8223    5.5775 P.3       1 <0>         2.2289
     17 O2         11.5415   -5.0810    7.0281 O.2       1 <0>        -1.0664
     18 O3         10.9028   -6.1710    4.8443 O.3       1 <0>        -1.0934
     19 O4         12.1790   -3.9332    4.8114 O.3       1 <0>        -0.8824
     20 P2          9.6913   -2.3410    6.4639 P.3       1 <0>         2.2859
     21 O5         10.7489   -1.4878    5.7287 O.2       1 <0>        -1.0828
     22 O6          8.3430   -1.5868    6.4818 O.3       1 <0>        -1.0966
     23 O7         10.1755   -2.6106    7.9755 O.3       1 <0>        -0.8755
     24 H1         -0.9591    1.9053    0.0259 H         1 <0>         0.1216
     25 H2          1.1563    3.1654    0.0076 H         1 <0>         0.1227
     26 H3          3.3051    1.9634   -0.0196 H         1 <0>         0.1223
     27 H4          1.2231   -1.7588   -0.0176 H         1 <0>         0.1205
     28 H5         -0.9258   -0.5567    0.0082 H         1 <0>         0.1219
     29 H6          3.5884   -1.6586   -0.5549 H         1 <0>         0.0741
     30 H7          4.4573   -0.1052   -0.5563 H         1 <0>         0.0759
     31 H8          4.2941   -0.0118    1.9163 H         1 <0>         0.0774
     32 H9          3.4252   -1.5652    1.9176 H         1 <0>         0.0740
     33 H10         5.3838   -2.6617    0.8639 H         1 <0>         0.0825
     34 H11         6.2527   -1.1082    0.8625 H         1 <0>         0.0865
     35 H12         6.0895   -1.0148    3.3350 H         1 <0>         0.1356
     36 H13         5.2206   -2.5682    3.3364 H         1 <0>         0.1253
     37 H14         7.1351   -3.5642    2.3218 H         1 <0>         0.4119
     38 H15         7.8133   -1.9778    4.6972 H         1 <0>         0.1885
     39 H16         6.9444   -3.5313    4.6986 H         1 <0>         0.1249
     40 H17         8.9030   -4.6278    3.6448 H         1 <0>         0.0774
     41 H18         9.7719   -3.0743    3.6435 H         1 <0>         0.0940
     42 H19         8.3467   -5.5842    5.8725 H         1 <0>         0.3545
     43 H20        13.0521   -4.3459    4.7620 H         1 <0>         0.4085
     44 H21        10.3054   -1.8062    8.4962 H         1 <0>         0.4046
     45 H22         7.9394   -2.1262    2.3205 H         1 <0>         0.4230
@<TRIPOS>BOND
     1    1    6 ar
     2    1    2 ar
     3    1   24 1
     4    2    3 ar
     5    2   25 1
     6    3    4 ar
     7    3   26 1
     8    4    5 ar
     9    4    7 1
    10    5    6 ar
    11    5   27 1
    12    6   28 1
    13    7    8 1
    14    7   29 1
    15    7   30 1
    16    8    9 1
    17    8   31 1
    18    8   32 1
    19    9   10 1
    20    9   33 1
    21    9   34 1
    22   10   11 1
    23   10   35 1
    24   10   36 1
    25   11   12 1
    26   11   37 1
    27   11   45 1
    28   12   13 1
    29   12   38 1
    30   12   39 1
    31   13   14 1
    32   13   40 1
    33   13   41 1
    34   14   15 1
    35   14   16 1
    36   14   20 1
    37   15   42 1
    38   16   17 2
    39   16   18 1
    40   16   19 1
    41   19   43 1
    42   20   21 2
    43   20   22 1
    44   20   23 1
    45   23   44 1
@<TRIPOS>MOLECULE
CHEMBL55557
   27    27     0     0     0
SMALL
USER_CHARGES

@<TRIPOS>ATOM
      1 C1         -0.0184    1.5028    0.0103 C.3       1 <0>        -0.1163
      2 C2          0.0021   -0.0041    0.0020 C.ar      1 <0>        -0.0071
      3 C3          0.0062   -0.7075   -1.1955 C.ar      1 <0>        -0.1821
      4 C4          0.0255   -2.0874   -1.1689 C.ar      1 <0>         0.0905
      5 N1          0.0401   -2.7422   -0.0232 N.ar      1 <0>        -0.5298
      6 C5          0.0364   -2.1079    1.1389 C.ar      1 <0>         0.4296
      7 C6          0.0230   -0.7174    1.1866 C.ar      1 <0>        -0.0964
      8 N2          0.0518   -2.8376    2.3220 N.pl3     1 <0>        -0.5666
      9 C7          0.0478   -2.1424    3.6115 C.3       1 <0>        -1.0393
     10 P1         -1.6203   -1.4857    3.9426 P.3       1 <0>         2.1439
     11 O1         -2.0216   -0.4831    2.8076 O.2       1 <0>        -1.1456
     12 O2         -2.6482   -2.6673    3.9831 O.3       1 <0>        -1.1281
     13 O3         -1.6246   -0.7423    5.3216 O.3       1 <0>        -1.1416
     14 P2          0.5147   -3.3091    4.9322 P.3       1 <0>         2.2772
     15 O4         -0.4990   -4.4743    4.9722 O.2       1 <0>        -1.0748
     16 O5          1.9284   -3.8657    4.6516 O.3       1 <0>        -1.1180
     17 O6          0.5103   -2.5450    6.3494 O.3       1 <0>        -0.8756
     18 H1          1.0042    1.8801    0.0026 H         1 <0>         0.0747
     19 H2         -0.5455    1.8639   -0.8728 H         1 <0>         0.0724
     20 H3         -0.5286    1.8543    0.9071 H         1 <0>         0.0919
     21 H4         -0.0061   -0.1802   -2.1379 H         1 <0>         0.1533
     22 H5          0.0284   -2.6383   -2.0978 H         1 <0>         0.1807
     23 H6          0.0246   -0.2022    2.1358 H         1 <0>         0.1795
     24 H7          0.0651   -3.8071    2.2937 H         1 <0>         0.4125
     25 H8          0.7629   -1.3203    3.5833 H         1 <0>         0.0906
     26 H9          0.7501   -3.1062    7.0995 H         1 <0>         0.3985
     27 H10         0.0536   -3.7120   -0.0328 H         1 <0>         0.4262
@<TRIPOS>BOND
     1    1    2 1
     2    1   18 1
     3    1   19 1
     4    1   20 1
     5    2    7 ar
     6    2    3 ar
     7    3    4 ar
     8    3   21 1
     9    4    5 ar
    10    4   22 1
    11    5    6 ar
    12    5   27 1
    13    6    7 ar
    14    6    8 1
    15    7   23 1
    16    8    9 1
    17    8   24 1
    18    9   10 1
    19    9   14 1
    20    9   25 1
    21   10   11 2
    22   10   12 1
    23   10   13 1
    24   14   15 2
    25   14   16 1
    26   14   17 1
    27   17   26 1
@<TRIPOS>MOLECULE
CHEMBL55557__1
   28    28     0     0     0
SMALL
USER_CHARGES

@<TRIPOS>ATOM
      1 C1         -0.0184    1.5028    0.0103 C.3       1 <0>        -0.1235
      2 C2          0.0021   -0.0041    0.0020 C.ar      1 <0>         0.0341
      3 C3          0.0062   -0.7075   -1.1955 C.ar      1 <0>        -0.1777
      4 C4          0.0255   -2.0874   -1.1689 C.ar      1 <0>         0.1117
      5 N1          0.0401   -2.7422   -0.0232 N.ar      1 <0>        -0.5169
      6 C5          0.0364   -2.1079    1.1389 C.ar      1 <0>         0.4363
      7 C6          0.0230   -0.7174    1.1866 C.ar      1 <0>        -0.1287
      8 N2          0.0518   -2.8376    2.3220 N.pl3     1 <0>        -0.6154
      9 C7          0.0478   -2.1424    3.6115 C.3       1 <0>        -1.0448
     10 P1         -0.3749   -3.3214    4.9361 P.3       1 <0>         2.2456
     11 O1         -1.7749   -3.9172    4.6679 O.2       1 <0>        -1.0886
     12 O2          0.6712   -4.4580    4.9670 O.3       1 <0>        -1.0677
     13 O3         -0.3793   -2.5574    6.3533 O.3       1 <0>        -0.8773
     14 P2          1.6997   -1.4394    3.9280 P.3       1 <0>         2.2344
     15 O4          2.0579   -0.4402    2.8053 O.2       1 <0>        -1.0795
     16 O5          1.6955   -0.7063    5.2879 O.3       1 <0>        -1.0652
     17 O6          2.7898   -2.6238    3.9602 O.3       1 <0>        -0.8781
     18 H1          1.0042    1.8801    0.0026 H         1 <0>         0.0998
     19 H2         -0.5455    1.8639   -0.8728 H         1 <0>         0.0779
     20 H3         -0.5286    1.8543    0.9071 H         1 <0>         0.0836
     21 H4         -0.0061   -0.1802   -2.1379 H         1 <0>         0.1658
     22 H5          0.0284   -2.6383   -2.0978 H         1 <0>         0.1931
     23 H6          0.0246   -0.2022    2.1358 H         1 <0>         0.1816
     24 H7          0.0651   -3.8071    2.2937 H         1 <0>         0.4190
     25 H8         -0.6903   -1.3406    3.5897 H         1 <0>         0.1254
     26 H9         -0.5967   -3.1250    7.1054 H         1 <0>         0.4124
     27 H10         3.6937   -2.3221    4.1245 H         1 <0>         0.4093
     28 H11         0.0536   -3.7120   -0.0328 H         1 <0>         0.4333
@<TRIPOS>BOND
     1    1    2 1
     2    1   18 1
     3    1   19 1
     4    1   20 1
     5    2    7 ar
     6    2    3 ar
     7    3    4 ar
     8    3   21 1
     9    4    5 ar
    10    4   22 1
    11    5    6 ar
    12    5   28 1
    13    6    7 ar
    14    6    8 1
    15    7   23 1
    16    8    9 1
    17    8   24 1
    18    9   10 1
    19    9   14 1
    20    9   25 1
    21   10   11 2
    22   10   12 1
    23   10   13 1
    24   13   26 1
    25   14   15 2
    26   14   16 1
    27   14   17 1
    28   17   27 1
@<TRIPOS>MOLECULE
CHEMBL55140
   27    27     0     0     0
SMALL
USER_CHARGES

@<TRIPOS>ATOM
      1 C1         -0.0184    1.5028    0.0103 C.3       1 <0>        -0.1115
      2 C2          0.0021   -0.0041    0.0020 C.ar      1 <0>        -0.1771
      3 C3          0.0059   -0.6986   -1.1944 C.ar      1 <0>         0.0022
      4 C4          0.0249   -2.0863   -1.1549 C.ar      1 <0>        -0.2312
      5 C5          0.0393   -2.7279    0.0675 C.ar      1 <0>         0.1682
      6 N1          0.0348   -2.0396    1.1931 N.ar      1 <0>        -0.4702
      7 C6          0.0231   -0.7154    1.1972 C.ar      1 <0>         0.4391
      8 N2          0.0253   -0.0302    2.4066 N.pl3     1 <0>        -0.5718
      9 C7          0.0473   -0.7728    3.6692 C.3       1 <0>        -1.0619
     10 P1          1.7195   -1.4417    3.9516 P.3       1 <0>         2.1416
     11 O1          2.1037   -2.4015    2.7744 O.2       1 <0>        -1.1615
     12 O2          2.7487   -0.2626    4.0212 O.3       1 <0>        -1.1201
     13 O3          1.7431   -2.2359    5.3018 O.3       1 <0>        -1.1381
     14 P2         -0.3997    0.3439    5.0390 P.3       1 <0>         2.2785
     15 O4          0.6153    1.5067    5.1077 O.2       1 <0>        -1.0718
     16 O5         -1.8169    0.9109    4.7997 O.3       1 <0>        -1.1158
     17 O6         -0.3755   -0.4722    6.4266 O.3       1 <0>        -0.8771
     18 H1          1.0042    1.8801    0.0026 H         1 <0>         0.0873
     19 H2         -0.5455    1.8639   -0.8728 H         1 <0>         0.0806
     20 H3         -0.5286    1.8543    0.9071 H         1 <0>         0.0734
     21 H4         -0.0059   -0.1732   -2.1379 H         1 <0>         0.1509
     22 H5          0.0281   -2.6581   -2.0711 H         1 <0>         0.1565
     23 H6          0.0541   -3.8072    0.1028 H         1 <0>         0.1833
     24 H7          0.0122    0.9397    2.4146 H         1 <0>         0.4288
     25 H8         -0.6687   -1.5932    3.6208 H         1 <0>         0.0779
     26 H9         -0.6041    0.0607    7.2004 H         1 <0>         0.3992
     27 H10         0.0448   -2.5151    2.0385 H         1 <0>         0.4405
@<TRIPOS>BOND
     1    1    2 1
     2    1   18 1
     3    1   19 1
     4    1   20 1
     5    2    7 ar
     6    2    3 ar
     7    3    4 ar
     8    3   21 1
     9    4    5 ar
    10    4   22 1
    11    5    6 ar
    12    5   23 1
    13    6    7 ar
    14    6   27 1
    15    7    8 1
    16    8    9 1
    17    8   24 1
    18    9   10 1
    19    9   14 1
    20    9   25 1
    21   10   11 2
    22   10   12 1
    23   10   13 1
    24   14   15 2
    25   14   16 1
    26   14   17 1
    27   17   26 1
@<TRIPOS>MOLECULE
CHEMBL55140__1
   28    28     0     0     0
SMALL
USER_CHARGES

@<TRIPOS>ATOM
      1 C1         -0.0184    1.5028    0.0103 C.3       1 <0>        -0.1171
      2 C2          0.0021   -0.0041    0.0020 C.ar      1 <0>        -0.1680
      3 C3          0.0059   -0.6986   -1.1944 C.ar      1 <0>         0.0129
      4 C4          0.0249   -2.0863   -1.1549 C.ar      1 <0>        -0.2017
      5 C5          0.0393   -2.7279    0.0675 C.ar      1 <0>         0.1610
      6 N1          0.0348   -2.0396    1.1931 N.ar      1 <0>        -0.4725
      7 C6          0.0231   -0.7154    1.1972 C.ar      1 <0>         0.4431
      8 N2          0.0253   -0.0302    2.4066 N.pl3     1 <0>        -0.6158
      9 C7          0.0473   -0.7728    3.6692 C.3       1 <0>        -1.0692
     10 P1          1.7195   -1.4417    3.9516 P.3       1 <0>         2.2377
     11 O1          2.0984   -2.3882    2.7907 O.2       1 <0>        -1.0931
     12 O2          2.7772   -0.2300    4.0232 O.3       1 <0>        -0.8728
     13 O3          1.7428   -2.2250    5.2831 O.3       1 <0>        -1.0612
     14 P2         -0.3997    0.3439    5.0390 P.3       1 <0>         2.2457
     15 O4          0.6153    1.5067    5.1077 O.2       1 <0>        -1.0635
     16 O5         -1.8169    0.9109    4.7997 O.3       1 <0>        -1.0851
     17 O6         -0.3755   -0.4722    6.4266 O.3       1 <0>        -0.8786
     18 H1          1.0042    1.8801    0.0026 H         1 <0>         0.0902
     19 H2         -0.5455    1.8639   -0.8728 H         1 <0>         0.0892
     20 H3         -0.5286    1.8543    0.9071 H         1 <0>         0.0769
     21 H4         -0.0059   -0.1732   -2.1379 H         1 <0>         0.1618
     22 H5          0.0281   -2.6581   -2.0711 H         1 <0>         0.1681
     23 H6          0.0541   -3.8072    0.1028 H         1 <0>         0.1942
     24 H7          0.0122    0.9397    2.4146 H         1 <0>         0.4358
     25 H8         -0.6687   -1.5932    3.6208 H         1 <0>         0.1148
     26 H9         -0.6041    0.0607    7.2004 H         1 <0>         0.4133
     27 H10         0.0448   -2.5151    2.0385 H         1 <0>         0.4428
     28 H11         3.6899   -0.5129    4.1719 H         1 <0>         0.4110
@<TRIPOS>BOND
     1    1    2 1
     2    1   18 1
     3    1   19 1
     4    1   20 1
     5    2    7 ar
     6    2    3 ar
     7    3    4 ar
     8    3   21 1
     9    4    5 ar
    10    4   22 1
    11    5    6 ar
    12    5   23 1
    13    6    7 ar
    14    6   27 1
    15    7    8 1
    16    8    9 1
    17    8   24 1
    18    9   10 1
    19    9   14 1
    20    9   25 1
    21   10   11 2
    22   10   12 1
    23   10   13 1
    24   12   28 1
    25   14   15 2
    26   14   16 1
    27   14   17 1
    28   17   26 1
@<TRIPOS>MOLECULE
CHEMBL55140__2
   26    26     0     0     0
SMALL
USER_CHARGES

@<TRIPOS>ATOM
      1 C1         -0.0184    1.5028    0.0103 C.3       1 <0>        -0.0897
      2 C2          0.0021   -0.0041    0.0020 C.ar      1 <0>        -0.2522
      3 C3          0.0059   -0.6986   -1.1944 C.ar      1 <0>        -0.0449
      4 C4          0.0249   -2.0863   -1.1549 C.ar      1 <0>        -0.2974
      5 C5          0.0393   -2.7279    0.0675 C.ar      1 <0>         0.1556
      6 N1          0.0348   -2.0396    1.1931 N.ar      1 <0>        -0.4648
      7 C6          0.0231   -0.7154    1.1972 C.ar      1 <0>         0.4233
      8 N2          0.0253   -0.0302    2.4066 N.pl3     1 <0>        -0.6196
      9 C7          0.0473   -0.7728    3.6692 C.3       1 <0>        -1.0311
     10 P1          1.7195   -1.4417    3.9516 P.3       1 <0>         2.1979
     11 O1          2.1037   -2.4015    2.7744 O.2       1 <0>        -1.1673
     12 O2          2.7487   -0.2626    4.0212 O.3       1 <0>        -1.1647
     13 O3          1.7431   -2.2360    5.3018 O.3       1 <0>        -1.1833
     14 P2         -0.3997    0.3439    5.0390 P.3       1 <0>         2.2801
     15 O4          0.6153    1.5067    5.1077 O.2       1 <0>        -1.0910
     16 O5         -1.8169    0.9109    4.7997 O.3       1 <0>        -1.1345
     17 O6         -0.3755   -0.4722    6.4266 O.3       1 <0>        -0.8764
     18 H1          1.0042    1.8801    0.0026 H         1 <0>         0.0595
     19 H2         -0.5455    1.8639   -0.8728 H         1 <0>         0.0492
     20 H3         -0.5286    1.8543    0.9071 H         1 <0>         0.0581
     21 H4         -0.0059   -0.1732   -2.1379 H         1 <0>         0.1065
     22 H5          0.0281   -2.6581   -2.0711 H         1 <0>         0.1034
     23 H6          0.0541   -3.8072    0.1028 H         1 <0>         0.1310
     24 H7          0.0122    0.9397    2.4146 H         1 <0>         0.3984
     25 H8         -0.6687   -1.5932    3.6208 H         1 <0>         0.0681
     26 H9         -0.6041    0.0607    7.2004 H         1 <0>         0.3860
@<TRIPOS>BOND
     1    1    2 1
     2    1   18 1
     3    1   19 1
     4    1   20 1
     5    2    7 ar
     6    2    3 ar
     7    3    4 ar
     8    3   21 1
     9    4    5 ar
    10    4   22 1
    11    5    6 ar
    12    5   23 1
    13    6    7 ar
    14    7    8 1
    15    8    9 1
    16    8   24 1
    17    9   10 1
    18    9   14 1
    19    9   25 1
    20   10   11 2
    21   10   12 1
    22   10   13 1
    23   14   15 2
    24   14   16 1
    25   14   17 1
    26   17   26 1
@<TRIPOS>MOLECULE
CHEMBL238046
   56    55     0     0     0
SMALL
NO_CHARGES

@<TRIPOS>ATOM
      1 C1          1.7963    0.0902    0.4299 C.3       1 <0>        -0.1546
      2 C2          1.5994   -1.4189    0.5868 C.3       1 <0>        -0.1262
      3 C3          0.1312   -1.7702    0.3378 C.3       1 <0>        -0.1214
      4 C4         -0.0657   -3.2794    0.4947 C.3       1 <0>        -0.1214
      5 C5         -1.5339   -3.6307    0.2457 C.3       1 <0>        -0.1209
      6 C6         -1.7308   -5.1399    0.4026 C.3       1 <0>        -0.1210
      7 C7         -3.1989   -5.4912    0.1536 C.3       1 <0>        -0.1210
      8 C8         -3.3959   -7.0004    0.3105 C.3       1 <0>        -0.1213
      9 C9         -4.8640   -7.3517    0.0616 C.3       1 <0>        -0.1218
     10 C10        -5.0609   -8.8609    0.2184 C.3       1 <0>        -0.1134
     11 C11        -6.5291   -9.2122   -0.0305 C.3       1 <0>        -0.1203
     12 C12        -6.7260  -10.7214    0.1263 C.3       1 <0>        -0.2387
     13 S1         -8.4667  -11.1380   -0.1688 S.3       1 <0>         0.5630
     14 C13        -9.5094  -10.2642    1.0311 C.3       1 <0>        -0.2829
     15 C14        -8.7001  -12.9272    0.0171 C.3       1 <0>        -0.2434
     16 C15       -10.1892  -13.2614   -0.0926 C.3       1 <0>        -0.9782
     17 P1        -10.7764  -12.8751   -1.7746 P.3       1 <0>         1.9209
     18 O1        -10.8669  -11.3212   -1.9521 O.2       1 <0>        -0.7620
     19 O2         -9.7742  -13.4632   -2.8255 O.3       1 <0>        -0.6360
     20 O3        -12.1925  -13.5090   -1.9918 O.3       1 <0>        -0.6365
     21 P2        -10.4405  -15.0349    0.2465 P.3       1 <0>         2.1532
     22 O4         -9.5773  -15.8721   -0.7235 O.2       1 <0>        -0.8904
     23 O5        -10.0266  -15.3445    1.7025 O.3       1 <0>        -0.9603
     24 O6        -11.9935  -15.4059    0.0397 O.3       1 <0>        -0.8549
     25 H1          2.8422    0.3406    0.6073 H         1 <0>         0.0540
     26 H2          1.5172    0.3900   -0.5802 H         1 <0>         0.0536
     27 H3          1.1697    0.6153    1.1510 H         1 <0>         0.0533
     28 H4          2.2259   -1.9439   -0.1343 H         1 <0>         0.0605
     29 H5          1.8785   -1.7187    1.5969 H         1 <0>         0.0602
     30 H6         -0.4953   -1.2452    1.0589 H         1 <0>         0.0605
     31 H7         -0.1479   -1.4705   -0.6723 H         1 <0>         0.0610
     32 H8          0.5608   -3.8044   -0.2263 H         1 <0>         0.0610
     33 H9          0.2134   -3.5792    1.5048 H         1 <0>         0.0604
     34 H10        -2.1604   -3.1057    0.9668 H         1 <0>         0.0604
     35 H11        -1.8130   -3.3310   -0.7644 H         1 <0>         0.0613
     36 H12        -1.1042   -5.6649   -0.3184 H         1 <0>         0.0616
     37 H13        -1.4517   -5.4397    1.4127 H         1 <0>         0.0606
     38 H14        -3.8255   -4.9662    0.8747 H         1 <0>         0.0610
     39 H15        -3.4780   -5.1915   -0.8565 H         1 <0>         0.0628
     40 H16        -2.7693   -7.5254   -0.4105 H         1 <0>         0.0646
     41 H17        -3.1167   -7.3002    1.3206 H         1 <0>         0.0623
     42 H18        -5.4906   -6.8267    0.7826 H         1 <0>         0.0650
     43 H19        -5.1431   -7.0520   -0.9486 H         1 <0>         0.0694
     44 H20        -4.4344   -9.3859   -0.5026 H         1 <0>         0.0777
     45 H21        -4.7818   -9.1607    1.2285 H         1 <0>         0.0716
     46 H22        -7.1556   -8.6872    0.6905 H         1 <0>         0.0812
     47 H23        -6.8082   -8.9124   -1.0407 H         1 <0>         0.1002
     48 H24        -6.0995  -11.2464   -0.5947 H         1 <0>         0.1661
     49 H25        -6.4469  -11.0212    1.1364 H         1 <0>         0.1273
     50 H26        -9.3057   -9.1947    0.9786 H         1 <0>         0.1639
     51 H27       -10.5591  -10.4458    0.8005 H         1 <0>         0.1558
     52 H28        -9.2899  -10.6270    2.0352 H         1 <0>         0.1251
     53 H29        -8.1520  -13.4487   -0.7676 H         1 <0>         0.1996
     54 H30        -8.3278  -13.2429    0.9917 H         1 <0>         0.1775
     55 H31       -10.7486  -12.6700    0.6323 H         1 <0>         0.1725
     56 H32       -12.2008  -16.3361    0.2035 H         1 <0>         0.4378
@<TRIPOS>BOND
     1    1    2 1
     2    1   25 1
     3    1   26 1
     4    1   27 1
     5    2    3 1
     6    2   28 1
     7    2   29 1
     8    3    4 1
     9    3   30 1
    10    3   31 1
    11    4    5 1
    12    4   32 1
    13    4   33 1
    14    5    6 1
    15    5   34 1
    16    5   35 1
    17    6    7 1
    18    6   36 1
    19    6   37 1
    20    7    8 1
    21    7   38 1
    22    7   39 1
    23    8    9 1
    24    8   40 1
    25    8   41 1
    26    9   10 1
    27    9   42 1
    28    9   43 1
    29   10   11 1
    30   10   44 1
    31   10   45 1
    32   11   12 1
    33   11   46 1
    34   11   47 1
    35   12   13 1
    36   12   48 1
    37   12   49 1
    38   13   14 1
    39   13   15 1
    40   14   50 1
    41   14   51 1
    42   14   52 1
    43   15   16 1
    44   15   53 1
    45   15   54 1
    46   16   17 1
    47   16   21 1
    48   16   55 1
    49   17   18 2
    50   17   19 1
    51   17   20 1
    52   21   22 2
    53   21   23 1
    54   21   24 1
    55   24   56 1
@<TRIPOS>MOLECULE
CHEMBL238046__1
   57    56     0     0     0
SMALL
NO_CHARGES

@<TRIPOS>ATOM
      1 C1         -0.0574    2.0019   -0.8235 C.3       1 <0>        -0.1546
      2 C2         -0.0862    0.4729   -0.7787 C.3       1 <0>        -0.1262
      3 C3          0.6867   -0.0870   -1.9745 C.3       1 <0>        -0.1214
      4 C4          0.6580   -1.6161   -1.9297 C.3       1 <0>        -0.1213
      5 C5          1.4309   -2.1759   -3.1256 C.3       1 <0>        -0.1209
      6 C6          1.4021   -3.7050   -3.0808 C.3       1 <0>        -0.1210
      7 C7          2.1750   -4.2649   -4.2767 C.3       1 <0>        -0.1211
      8 C8          2.1462   -5.7940   -4.2319 C.3       1 <0>        -0.1211
      9 C9          2.9191   -6.3538   -5.4277 C.3       1 <0>        -0.1218
     10 C10         2.8904   -7.8829   -5.3829 C.3       1 <0>        -0.1136
     11 C11         3.6633   -8.4428   -6.5788 C.3       1 <0>        -0.1194
     12 C12         3.6345   -9.9719   -6.5340 C.3       1 <0>        -0.2447
     13 S1          4.5509  -10.6357   -7.9518 S.3       1 <0>         0.5685
     14 C13         3.7822  -10.0613   -9.4912 C.3       1 <0>        -0.2800
     15 C14         4.5168  -12.4486   -7.8987 C.3       1 <0>        -0.2282
     16 C15         5.3820  -13.0083   -9.0297 C.3       1 <0>        -1.1022
     17 P1          7.1280  -12.5792   -8.7284 P.3       1 <0>         2.1512
     18 O1          8.0351  -13.4569   -9.6194 O.2       1 <0>        -0.8367
     19 O2          7.3583  -11.0897   -9.0682 O.3       1 <0>        -0.9308
     20 O3          7.4846  -12.8378   -7.1799 O.3       1 <0>        -0.8574
     21 P2          5.2037  -14.8215   -9.0908 P.3       1 <0>         2.1879
     22 O4          5.5433  -15.4193   -7.7073 O.2       1 <0>        -0.8789
     23 O5          3.7491  -15.1836   -9.4653 O.3       1 <0>        -0.9263
     24 O6          6.2080  -15.4225  -10.1964 O.3       1 <0>        -0.8450
     25 H1          0.9756    2.3473   -0.7823 H         1 <0>         0.0536
     26 H2         -0.5193    2.3471   -1.7485 H         1 <0>         0.0534
     27 H3         -0.6081    2.4008    0.0285 H         1 <0>         0.0540
     28 H4          0.3757    0.1277    0.1463 H         1 <0>         0.0605
     29 H5         -1.1192    0.1275   -0.8198 H         1 <0>         0.0602
     30 H6          0.2248    0.2581   -2.8995 H         1 <0>         0.0605
     31 H7          1.7197    0.2583   -1.9334 H         1 <0>         0.0609
     32 H8          1.1199   -1.9612   -1.0048 H         1 <0>         0.0610
     33 H9         -0.3751   -1.9614   -1.9709 H         1 <0>         0.0604
     34 H10         0.9689   -1.8308   -4.0506 H         1 <0>         0.0605
     35 H11         2.4639   -1.8306   -3.0845 H         1 <0>         0.0613
     36 H12         1.8640   -4.0502   -2.1558 H         1 <0>         0.0615
     37 H13         0.3691   -4.0503   -3.1220 H         1 <0>         0.0605
     38 H14         1.7131   -3.9197   -5.2017 H         1 <0>         0.0611
     39 H15         3.2080   -3.9196   -4.2355 H         1 <0>         0.0628
     40 H16         2.6082   -6.1391   -3.3069 H         1 <0>         0.0643
     41 H17         1.1132   -6.1393   -4.2730 H         1 <0>         0.0621
     42 H18         2.4572   -6.0087   -6.3527 H         1 <0>         0.0649
     43 H19         3.9522   -6.0085   -5.3866 H         1 <0>         0.0693
     44 H20         3.3523   -8.2281   -4.4580 H         1 <0>         0.0768
     45 H21         1.8573   -8.2282   -5.4241 H         1 <0>         0.0708
     46 H22         3.2014   -8.0976   -7.5038 H         1 <0>         0.0803
     47 H23         4.6963   -8.0975   -6.5377 H         1 <0>         0.0996
     48 H24         4.0964  -10.3170   -5.6090 H         1 <0>         0.1628
     49 H25         2.6015  -10.3172   -6.5752 H         1 <0>         0.1242
     50 H26         2.7790  -10.4794   -9.5745 H         1 <0>         0.1223
     51 H27         3.7226   -8.9729   -9.4835 H         1 <0>         0.1596
     52 H28         4.3830  -10.3863  -10.3407 H         1 <0>         0.1563
     53 H29         4.9058  -12.7913   -6.9400 H         1 <0>         0.1863
     54 H30         3.4909  -12.7964   -8.0199 H         1 <0>         0.1568
     55 H31         5.0610  -12.5794   -9.9790 H         1 <0>         0.1659
     56 H32         8.3762  -12.5591   -6.9298 H         1 <0>         0.4370
     57 H33         6.1668  -16.3847  -10.2834 H         1 <0>         0.4334
@<TRIPOS>BOND
     1    1    2 1
     2    1   25 1
     3    1   26 1
     4    1   27 1
     5    2    3 1
     6    2   28 1
     7    2   29 1
     8    3    4 1
     9    3   30 1
    10    3   31 1
    11    4    5 1
    12    4   32 1
    13    4   33 1
    14    5    6 1
    15    5   34 1
    16    5   35 1
    17    6    7 1
    18    6   36 1
    19    6   37 1
    20    7    8 1
    21    7   38 1
    22    7   39 1
    23    8    9 1
    24    8   40 1
    25    8   41 1
    26    9   10 1
    27    9   42 1
    28    9   43 1
    29   10   11 1
    30   10   44 1
    31   10   45 1
    32   11   12 1
    33   11   46 1
    34   11   47 1
    35   12   13 1
    36   12   48 1
    37   12   49 1
    38   13   14 1
    39   13   15 1
    40   14   50 1
    41   14   51 1
    42   14   52 1
    43   15   16 1
    44   15   53 1
    45   15   54 1
    46   16   17 1
    47   16   21 1
    48   16   55 1
    49   17   18 2
    50   17   19 1
    51   17   20 1
    52   20   56 1
    53   21   22 2
    54   21   23 1
    55   21   24 1
    56   24   57 1
@<TRIPOS>MOLECULE
CHEMBL238046__2
   56    55     0     0     0
SMALL
NO_CHARGES

@<TRIPOS>ATOM
      1 C1          3.0467   -1.1432   -0.8601 C.3       1 <0>        -0.1546
      2 C2          2.7245   -2.6373   -0.7897 C.3       1 <0>        -0.1262
      3 C3          1.2078   -2.8297   -0.7303 C.3       1 <0>        -0.1214
      4 C4          0.8857   -4.3237   -0.6599 C.3       1 <0>        -0.1213
      5 C5         -0.6310   -4.5162   -0.6005 C.3       1 <0>        -0.1209
      6 C6         -0.9532   -6.0102   -0.5301 C.3       1 <0>        -0.1209
      7 C7         -2.4699   -6.2027   -0.4707 C.3       1 <0>        -0.1211
      8 C8         -2.7920   -7.6967   -0.4003 C.3       1 <0>        -0.1211
      9 C9         -4.3087   -7.8891   -0.3409 C.3       1 <0>        -0.1221
     10 C10        -4.6309   -9.3832   -0.2705 C.3       1 <0>        -0.1131
     11 C11        -6.1476   -9.5756   -0.2111 C.3       1 <0>        -0.1189
     12 C12        -6.4697  -11.0696   -0.1407 C.3       1 <0>        -0.2543
     13 S1         -8.2679  -11.2978   -0.0703 S.3       1 <0>         0.6231
     14 C13        -9.0265  -10.5850   -1.5559 C.3       1 <0>        -0.2889
     15 C14        -8.6499  -13.0692    0.0132 C.3       1 <0>        -0.2460
     16 C15       -10.1619  -13.2710   -0.1053 C.3       1 <0>        -1.0423
     17 P1        -10.5346  -15.0547   -0.1580 P.3       1 <0>         1.9835
     18 O1         -9.8686  -15.6901   -1.4258 O.2       1 <0>        -0.7065
     19 O2         -9.9693  -15.7446    1.1300 O.3       1 <0>        -0.6167
     20 O3        -12.0860  -15.2624   -0.2236 O.3       1 <0>        -0.6069
     21 P2        -10.9899  -12.5195    1.3345 P.3       1 <0>         2.1488
     22 O4        -10.2097  -12.8736    2.6201 O.2       1 <0>        -0.9421
     23 O5        -11.0298  -10.9847    1.1626 O.3       1 <0>        -0.9781
     24 O6        -12.4928  -13.0864    1.4456 O.3       1 <0>        -0.8644
     25 H1          4.1272   -1.0061   -0.9025 H         1 <0>         0.0539
     26 H2          2.5908   -0.7149   -1.7528 H         1 <0>         0.0533
     27 H3          2.6515   -0.6442    0.0247 H         1 <0>         0.0537
     28 H4          3.1197   -3.1362   -1.6746 H         1 <0>         0.0601
     29 H5          3.1803   -3.0656    0.1029 H         1 <0>         0.0605
     30 H6          0.8126   -2.3307    0.1545 H         1 <0>         0.0610
     31 H7          0.7520   -2.4014   -1.6230 H         1 <0>         0.0605
     32 H8          1.2808   -4.8227   -1.5448 H         1 <0>         0.0603
     33 H9          1.3415   -4.7520    0.2328 H         1 <0>         0.0610
     34 H10        -1.0262   -4.0172    0.2843 H         1 <0>         0.0614
     35 H11        -1.0869   -4.0879   -1.4932 H         1 <0>         0.0604
     36 H12        -0.5580   -6.5092   -1.4150 H         1 <0>         0.0602
     37 H13        -0.4974   -6.4385    0.3626 H         1 <0>         0.0616
     38 H14        -2.8651   -5.7037    0.4141 H         1 <0>         0.0631
     39 H15        -2.9257   -5.7743   -1.3634 H         1 <0>         0.0610
     40 H16        -2.3969   -8.1957   -1.2852 H         1 <0>         0.0616
     41 H17        -2.3362   -8.1250    0.4924 H         1 <0>         0.0645
     42 H18        -4.7039   -7.3901    0.5440 H         1 <0>         0.0701
     43 H19        -4.7646   -7.4608   -1.2336 H         1 <0>         0.0648
     44 H20        -4.2357   -9.8822   -1.1553 H         1 <0>         0.0697
     45 H21        -4.1751   -9.8115    0.6222 H         1 <0>         0.0771
     46 H22        -6.5427   -9.0766    0.6738 H         1 <0>         0.1014
     47 H23        -6.6034   -9.1473   -1.1038 H         1 <0>         0.0805
     48 H24        -6.0746  -11.5686   -1.0255 H         1 <0>         0.1214
     49 H25        -6.0139  -11.4980    0.7520 H         1 <0>         0.1647
     50 H26       -10.0961  -10.7950   -1.5541 H         1 <0>         0.1524
     51 H27        -8.8680   -9.5066   -1.5631 H         1 <0>         0.1668
     52 H28        -8.5714  -11.0251   -2.4431 H         1 <0>         0.1180
     53 H29        -8.1490  -13.5878   -0.8042 H         1 <0>         0.1465
     54 H30        -8.3032  -13.4711    0.9652 H         1 <0>         0.1985
     55 H31       -10.5211  -12.7976   -1.0190 H         1 <0>         0.1660
     56 H32       -12.9939  -12.7286    2.1912 H         1 <0>         0.4364
@<TRIPOS>BOND
     1    1    2 1
     2    1   25 1
     3    1   26 1
     4    1   27 1
     5    2    3 1
     6    2   28 1
     7    2   29 1
     8    3    4 1
     9    3   30 1
    10    3   31 1
    11    4    5 1
    12    4   32 1
    13    4   33 1
    14    5    6 1
    15    5   34 1
    16    5   35 1
    17    6    7 1
    18    6   36 1
    19    6   37 1
    20    7    8 1
    21    7   38 1
    22    7   39 1
    23    8    9 1
    24    8   40 1
    25    8   41 1
    26    9   10 1
    27    9   42 1
    28    9   43 1
    29   10   11 1
    30   10   44 1
    31   10   45 1
    32   11   12 1
    33   11   46 1
    34   11   47 1
    35   12   13 1
    36   12   48 1
    37   12   49 1
    38   13   14 1
    39   13   15 1
    40   14   50 1
    41   14   51 1
    42   14   52 1
    43   15   16 1
    44   15   53 1
    45   15   54 1
    46   16   17 1
    47   16   21 1
    48   16   55 1
    49   17   18 2
    50   17   19 1
    51   17   20 1
    52   21   22 2
    53   21   23 1
    54   21   24 1
    55   24   56 1
@<TRIPOS>MOLECULE
CHEMBL238046__3
   57    56     0     0     0
SMALL
NO_CHARGES

@<TRIPOS>ATOM
      1 C1         -1.1612   -0.0120    1.5087 C.3       1 <0>        -0.1546
      2 C2         -0.9427   -1.5203    1.3736 C.3       1 <0>        -0.1262
      3 C3         -0.2676   -1.8198    0.0337 C.3       1 <0>        -0.1214
      4 C4         -0.0491   -3.3281   -0.1014 C.3       1 <0>        -0.1213
      5 C5          0.6261   -3.6277   -1.4413 C.3       1 <0>        -0.1209
      6 C6          0.8446   -5.1359   -1.5764 C.3       1 <0>        -0.1209
      7 C7          1.5197   -5.4355   -2.9163 C.3       1 <0>        -0.1211
      8 C8          1.7382   -6.9438   -3.0513 C.3       1 <0>        -0.1210
      9 C9          2.4134   -7.2433   -4.3912 C.3       1 <0>        -0.1220
     10 C10         2.6319   -8.7516   -4.5263 C.3       1 <0>        -0.1133
     11 C11         3.3070   -9.0511   -5.8662 C.3       1 <0>        -0.1192
     12 C12         3.5255  -10.5594   -6.0013 C.3       1 <0>        -0.2494
     13 S1          4.3260  -10.9145   -7.5900 S.3       1 <0>         0.5918
     14 C13         5.9258  -10.0627   -7.6647 C.3       1 <0>        -0.2829
     15 C14         4.5850  -12.7028   -7.7501 C.3       1 <0>        -0.2286
     16 C15         5.4095  -12.9881   -9.0070 C.3       1 <0>        -1.1079
     17 P1          5.8187  -14.7633   -9.0753 P.3       1 <0>         2.1717
     18 O1          6.3405  -15.1176  -10.4857 O.2       1 <0>        -0.8043
     19 O2          6.9090  -15.0812   -8.0278 O.3       1 <0>        -0.9246
     20 O3          4.5000  -15.6305   -8.7575 O.3       1 <0>        -0.8570
     21 P2          4.4443  -12.5297  -10.4840 P.3       1 <0>         2.1607
     22 O4          2.9926  -13.0346  -10.3276 O.2       1 <0>        -0.9062
     23 O5          4.4410  -10.9926  -10.6404 O.3       1 <0>        -0.9328
     24 O6          5.1082  -13.2004  -11.7884 O.3       1 <0>        -0.8439
     25 H1         -0.1999    0.4998    1.4638 H         1 <0>         0.0534
     26 H2         -1.7972    0.3373    0.6953 H         1 <0>         0.0537
     27 H3         -1.6422    0.2014    2.4633 H         1 <0>         0.0539
     28 H4         -0.3068   -1.8696    2.1871 H         1 <0>         0.0601
     29 H5         -1.9040   -2.0322    1.4186 H         1 <0>         0.0605
     30 H6         -0.9035   -1.4706   -0.7797 H         1 <0>         0.0610
     31 H7          0.6937   -1.3080   -0.0112 H         1 <0>         0.0605
     32 H8          0.5869   -3.6774    0.7121 H         1 <0>         0.0603
     33 H9         -1.0104   -3.8400   -0.0564 H         1 <0>         0.0609
     34 H10        -0.0099   -3.2784   -2.2547 H         1 <0>         0.0613
     35 H11         1.5874   -3.1158   -1.4862 H         1 <0>         0.0605
     36 H12         1.4805   -5.4852   -0.7629 H         1 <0>         0.0603
     37 H13        -0.1167   -5.6478   -1.5314 H         1 <0>         0.0614
     38 H14         0.8838   -5.0862   -3.7297 H         1 <0>         0.0629
     39 H15         2.4810   -4.9236   -2.9612 H         1 <0>         0.0611
     40 H16         2.3742   -7.2930   -2.2379 H         1 <0>         0.0618
     41 H17         0.7769   -7.4556   -3.0064 H         1 <0>         0.0642
     42 H18         1.7774   -6.8940   -5.2047 H         1 <0>         0.0696
     43 H19         3.3747   -6.7314   -4.4362 H         1 <0>         0.0649
     44 H20         3.2678   -9.1009   -3.7129 H         1 <0>         0.0700
     45 H21         1.6706   -9.2634   -4.4814 H         1 <0>         0.0765
     46 H22         2.6711   -8.7018   -6.6797 H         1 <0>         0.1000
     47 H23         4.2683   -8.5392   -5.9112 H         1 <0>         0.0805
     48 H24         4.1615  -10.9087   -5.1879 H         1 <0>         0.1218
     49 H25         2.5642  -11.0712   -5.9564 H         1 <0>         0.1627
     50 H26         6.5309  -10.3499   -6.8048 H         1 <0>         0.1198
     51 H27         6.4434  -10.3415   -8.5826 H         1 <0>         0.1517
     52 H28         5.7645   -8.9848   -7.6516 H         1 <0>         0.1643
     53 H29         5.1181  -13.0726   -6.8742 H         1 <0>         0.1475
     54 H30         3.6203  -13.2042   -7.8269 H         1 <0>         0.1921
     55 H31         6.3294  -12.4041   -8.9784 H         1 <0>         0.1651
     56 H32         4.6439  -16.5866   -8.7766 H         1 <0>         0.4382
     57 H33         4.6455  -12.9985  -12.6131 H         1 <0>         0.4327
@<TRIPOS>BOND
     1    1    2 1
     2    1   25 1
     3    1   26 1
     4    1   27 1
     5    2    3 1
     6    2   28 1
     7    2   29 1
     8    3    4 1
     9    3   30 1
    10    3   31 1
    11    4    5 1
    12    4   32 1
    13    4   33 1
    14    5    6 1
    15    5   34 1
    16    5   35 1
    17    6    7 1
    18    6   36 1
    19    6   37 1
    20    7    8 1
    21    7   38 1
    22    7   39 1
    23    8    9 1
    24    8   40 1
    25    8   41 1
    26    9   10 1
    27    9   42 1
    28    9   43 1
    29   10   11 1
    30   10   44 1
    31   10   45 1
    32   11   12 1
    33   11   46 1
    34   11   47 1
    35   12   13 1
    36   12   48 1
    37   12   49 1
    38   13   14 1
    39   13   15 1
    40   14   50 1
    41   14   51 1
    42   14   52 1
    43   15   16 1
    44   15   53 1
    45   15   54 1
    46   16   17 1
    47   16   21 1
    48   16   55 1
    49   17   18 2
    50   17   19 1
    51   17   20 1
    52   20   56 1
    53   21   22 2
    54   21   23 1
    55   21   24 1
    56   24   57 1
@<TRIPOS>MOLECULE
CHEMBL55856
   30    29     0     0     0
SMALL
USER_CHARGES

@<TRIPOS>ATOM
      1 C1          0.2333    0.5026   -0.2151 C.3       1 <0>        -0.1538
      2 C2          0.3626   -0.9909    0.0908 C.3       1 <0>        -0.0926
      3 C3          1.2065   -1.6626   -0.9944 C.3       1 <0>        -0.1429
      4 C4          1.0389   -1.1763    1.4506 C.3       1 <0>        -0.1395
      5 C5          0.1355   -0.6146    2.5503 C.3       1 <0>        -0.0340
      6 N1          0.7849   -0.7926    3.8559 N.4       1 <0>        -0.4306
      7 C6         -0.0187   -0.1365    4.8960 C.3       1 <0>        -1.1463
      8 P1         -1.6164   -0.9982    5.0634 P.3       1 <0>         2.1292
      9 O1         -2.4531   -0.8063    3.7528 O.2       1 <0>        -1.1451
     10 O2         -1.3634   -2.5258    5.3023 O.3       1 <0>        -1.1220
     11 O3         -2.4058   -0.4033    6.2788 O.3       1 <0>        -1.1263
     12 P2          0.8747   -0.1989    6.4838 P.3       1 <0>         2.2712
     13 O4          1.1229   -1.6721    6.8776 O.2       1 <0>        -1.0701
     14 O5          2.2288    0.5314    6.3420 O.3       1 <0>        -1.1109
     15 O6         -0.0060    0.5202    7.6237 O.3       1 <0>        -0.8694
     16 H1          1.2242    0.9560   -0.2374 H         1 <0>         0.0512
     17 H2         -0.2486    0.6347   -1.1839 H         1 <0>         0.0561
     18 H3         -0.3680    0.9811    0.5579 H         1 <0>         0.0625
     19 H4         -0.6284   -1.4444    0.1130 H         1 <0>         0.0872
     20 H5          2.1975   -1.2091   -1.0166 H         1 <0>         0.0515
     21 H6          1.2986   -2.7266   -0.7764 H         1 <0>         0.0570
     22 H7          0.7247   -1.5305   -1.9631 H         1 <0>         0.0552
     23 H8          1.2114   -2.2377    1.6289 H         1 <0>         0.0824
     24 H9          1.9918   -0.6471    1.4576 H         1 <0>         0.0692
     25 H10        -0.0370    0.4468    2.3720 H         1 <0>         0.1048
     26 H11        -0.8174   -1.1438    2.5433 H         1 <0>         0.1714
     27 H12         0.8621   -1.7774    4.0617 H         1 <0>         0.4266
     28 H13        -0.1938    0.9028    4.6182 H         1 <0>         0.1186
     29 H14         0.4088    0.5243    8.4972 H         1 <0>         0.4010
     30 H15         1.7057   -0.3807    3.8325 H         1 <0>         0.3882
@<TRIPOS>BOND
     1    1    2 1
     2    1   16 1
     3    1   17 1
     4    1   18 1
     5    2    3 1
     6    2    4 1
     7    2   19 1
     8    3   20 1
     9    3   21 1
    10    3   22 1
    11    4    5 1
    12    4   23 1
    13    4   24 1
    14    5    6 1
    15    5   25 1
    16    5   26 1
    17    6    7 1
    18    6   27 1
    19    6   30 1
    20    7    8 1
    21    7   12 1
    22    7   28 1
    23    8    9 2
    24    8   10 1
    25    8   11 1
    26   12   13 2
    27   12   14 1
    28   12   15 1
    29   15   29 1
@<TRIPOS>MOLECULE
CHEMBL55856__1
   29    28     0     0     0
SMALL
USER_CHARGES

@<TRIPOS>ATOM
      1 C1         -0.3142    0.4945   -0.0914 C.3       1 <0>        -0.1520
      2 C2         -0.0764   -0.9944   -0.3511 C.3       1 <0>        -0.0927
      3 C3         -1.4209   -1.7007   -0.5371 C.3       1 <0>        -0.1403
      4 C4          0.7676   -1.1631   -1.6160 C.3       1 <0>        -0.1395
      5 C5          2.1571   -0.5656   -1.3855 C.3       1 <0>        -0.0373
      6 N1          2.9674   -0.7275   -2.6000 N.4       1 <0>        -0.4296
      7 C6          4.2531   -0.0383   -2.4263 C.3       1 <0>        -1.1301
      8 P1          5.2181   -0.8715   -1.1233 P.3       1 <0>         2.1829
      9 O1          4.4967   -0.6928    0.2559 O.2       1 <0>        -1.1786
     10 O2          5.3368   -2.3977   -1.4565 O.3       1 <0>        -1.1505
     11 O3          6.6500   -0.2401   -1.0494 O.3       1 <0>        -1.1358
     12 P2          5.1830   -0.0829   -3.9936 P.3       1 <0>         2.1769
     13 O4          5.4404   -1.5722   -4.4060 O.2       1 <0>        -1.1476
     14 O5          4.3537    0.6332   -5.1134 O.3       1 <0>        -1.1908
     15 O6          6.5541    0.6522   -3.8084 O.3       1 <0>        -1.1359
     16 H1          0.6436    0.9977    0.0411 H         1 <0>         0.0654
     17 H2         -0.8400    0.9319   -0.9401 H         1 <0>         0.0495
     18 H3         -0.9155    0.6147    0.8098 H         1 <0>         0.0514
     19 H4          0.4494   -1.4319    0.4976 H         1 <0>         0.0855
     20 H5         -1.9467   -1.2633   -1.3858 H         1 <0>         0.0497
     21 H6         -1.2515   -2.7615   -0.7221 H         1 <0>         0.0553
     22 H7         -2.0222   -1.5806    0.3640 H         1 <0>         0.0509
     23 H8          0.8624   -2.2233   -1.8509 H         1 <0>         0.0782
     24 H9          0.2842   -0.6488   -2.4466 H         1 <0>         0.0650
     25 H10         2.0622    0.4946   -1.1506 H         1 <0>         0.0964
     26 H11         2.6405   -1.0798   -0.5548 H         1 <0>         0.1657
     27 H12         3.1318   -1.7090   -2.7662 H         1 <0>         0.4189
     28 H13         4.0740    0.9979   -2.1394 H         1 <0>         0.0906
     29 H14         2.4767   -0.3306   -3.3872 H         1 <0>         0.3785
@<TRIPOS>BOND
     1    1    2 1
     2    1   16 1
     3    1   17 1
     4    1   18 1
     5    2    3 1
     6    2    4 1
     7    2   19 1
     8    3   20 1
     9    3   21 1
    10    3   22 1
    11    4    5 1
    12    4   23 1
    13    4   24 1
    14    5    6 1
    15    5   25 1
    16    5   26 1
    17    6    7 1
    18    6   27 1
    19    6   29 1
    20    7    8 1
    21    7   12 1
    22    7   28 1
    23    8    9 2
    24    8   10 1
    25    8   11 1
    26   12   13 2
    27   12   14 1
    28   12   15 1
@<TRIPOS>MOLECULE
CHEMBL55572
   64    63     0     0     0
SMALL
USER_CHARGES

@<TRIPOS>ATOM
      1 C1         -0.0187    1.5258    0.0104 C.3       1 <0>        -0.1531
      2 C2          0.0021   -0.0041    0.0020 C.3       1 <0>        -0.1262
      3 C3          0.7182   -0.4975   -1.2568 C.3       1 <0>        -0.1210
      4 C4          0.7390   -2.0273   -1.2652 C.3       1 <0>        -0.1211
      5 C5          1.4551   -2.5207   -2.5240 C.3       1 <0>        -0.1203
      6 C6          1.4758   -4.0506   -2.5324 C.3       1 <0>        -0.1206
      7 C7          2.1920   -4.5440   -3.7912 C.3       1 <0>        -0.1200
      8 C8          2.2127   -6.0738   -3.7996 C.3       1 <0>        -0.1205
      9 C9          2.9289   -6.5673   -5.0584 C.3       1 <0>        -0.1195
     10 C10         2.9496   -8.0971   -5.0668 C.3       1 <0>        -0.1204
     11 C11         3.6658   -8.5905   -6.3257 C.3       1 <0>        -0.1184
     12 C12         3.6865  -10.1203   -6.3341 C.3       1 <0>        -0.1202
     13 C13         4.4026  -10.6138   -7.5929 C.3       1 <0>        -0.1168
     14 C14         4.4234  -12.1436   -7.6013 C.3       1 <0>        -0.1160
     15 C15         5.1395  -12.6370   -8.8601 C.3       1 <0>        -0.1132
     16 C16         5.1603  -14.1669   -8.8685 C.3       1 <0>        -0.1385
     17 C17         5.8764  -14.6603  -10.1273 C.3       1 <0>        -0.0833
     18 C18         5.8972  -16.1901  -10.1357 C.3       1 <0>        -1.0342
     19 O1          6.5883  -16.6635   -8.9780 O.3       1 <0>        -0.5177
     20 P1          4.1869  -16.8211  -10.1228 P.3       1 <0>         2.2256
     21 O2          3.4937  -16.4234   -8.7753 O.2       1 <0>        -1.1790
     22 O3          3.3922  -16.2005  -11.3219 O.3       1 <0>        -1.1656
     23 O4          4.2050  -18.3816  -10.2601 O.3       1 <0>        -1.1785
     24 P2          6.7504  -16.7780  -11.6356 P.3       1 <0>         2.2727
     25 O5          6.0032  -16.2662  -12.8873 O.2       1 <0>        -1.0980
     26 O6          8.1999  -16.2432  -11.6466 O.3       1 <0>        -1.1372
     27 O7          6.7723  -18.3878  -11.6444 O.3       1 <0>        -0.8692
     28 H1          1.0039    1.9031    0.0027 H         1 <0>         0.0527
     29 H2         -0.5459    1.8868   -0.8726 H         1 <0>         0.0529
     30 H3         -0.5289    1.8773    0.9072 H         1 <0>         0.0514
     31 H4          0.5293   -0.3651    0.8851 H         1 <0>         0.0599
     32 H5         -1.0205   -0.3814    0.0098 H         1 <0>         0.0602
     33 H6          0.1910   -0.1364   -2.1398 H         1 <0>         0.0604
     34 H7          1.7408   -0.1202   -1.2645 H         1 <0>         0.0600
     35 H8          1.2661   -2.3884   -0.3821 H         1 <0>         0.0601
     36 H9         -0.2836   -2.4046   -1.2575 H         1 <0>         0.0605
     37 H10         0.9279   -2.1597   -3.4071 H         1 <0>         0.0602
     38 H11         2.4777   -2.1435   -2.5317 H         1 <0>         0.0597
     39 H12         2.0030   -4.4117   -1.6494 H         1 <0>         0.0598
     40 H13         0.4533   -4.4279   -2.5247 H         1 <0>         0.0604
     41 H14         1.6648   -4.1829   -4.6743 H         1 <0>         0.0600
     42 H15         3.2146   -4.1667   -3.7990 H         1 <0>         0.0592
     43 H16         2.7399   -6.4349   -2.9166 H         1 <0>         0.0594
     44 H17         1.1901   -6.4511   -3.7919 H         1 <0>         0.0605
     45 H18         2.4017   -6.2062   -5.9415 H         1 <0>         0.0597
     46 H19         3.9515   -6.1900   -5.0662 H         1 <0>         0.0584
     47 H20         3.4768   -8.4582   -4.1838 H         1 <0>         0.0587
     48 H21         1.9270   -8.4744   -5.0591 H         1 <0>         0.0609
     49 H22         3.1386   -8.2294   -7.2087 H         1 <0>         0.0593
     50 H23         4.6884   -8.2132   -6.3334 H         1 <0>         0.0567
     51 H24         4.2137  -10.4814   -5.4510 H         1 <0>         0.0573
     52 H25         2.6639  -10.4976   -6.3263 H         1 <0>         0.0621
     53 H26         3.8755  -10.2527   -8.4759 H         1 <0>         0.0582
     54 H27         5.4252  -10.2365   -7.6006 H         1 <0>         0.0523
     55 H28         4.9506  -12.5047   -6.7182 H         1 <0>         0.0525
     56 H29         3.4008  -12.5209   -7.5935 H         1 <0>         0.0666
     57 H30         4.6123  -12.2759   -9.7431 H         1 <0>         0.0528
     58 H31         6.1621  -12.2597   -8.8678 H         1 <0>         0.0364
     59 H32         5.6875  -14.5279   -7.9854 H         1 <0>         0.0404
     60 H33         4.1377  -14.5441   -8.8608 H         1 <0>         0.1237
     61 H34         5.3492  -14.2992  -11.0104 H         1 <0>         0.0663
     62 H35         6.8990  -14.2830  -10.1350 H         1 <0>         0.0209
     63 H36         7.5065  -16.3660   -8.9191 H         1 <0>         0.3105
     64 H37         7.2120  -18.7710  -12.4158 H         1 <0>         0.3793
@<TRIPOS>BOND
     1    1    2 1
     2    1   28 1
     3    1   29 1
     4    1   30 1
     5    2    3 1
     6    2   31 1
     7    2   32 1
     8    3    4 1
     9    3   33 1
    10    3   34 1
    11    4    5 1
    12    4   35 1
    13    4   36 1
    14    5    6 1
    15    5   37 1
    16    5   38 1
    17    6    7 1
    18    6   39 1
    19    6   40 1
    20    7    8 1
    21    7   41 1
    22    7   42 1
    23    8    9 1
    24    8   43 1
    25    8   44 1
    26    9   10 1
    27    9   45 1
    28    9   46 1
    29   10   11 1
    30   10   47 1
    31   10   48 1
    32   11   12 1
    33   11   49 1
    34   11   50 1
    35   12   13 1
    36   12   51 1
    37   12   52 1
    38   13   14 1
    39   13   53 1
    40   13   54 1
    41   14   15 1
    42   14   55 1
    43   14   56 1
    44   15   16 1
    45   15   57 1
    46   15   58 1
    47   16   17 1
    48   16   59 1
    49   16   60 1
    50   17   18 1
    51   17   61 1
    52   17   62 1
    53   18   19 1
    54   18   20 1
    55   18   24 1
    56   19   63 1
    57   20   21 2
    58   20   22 1
    59   20   23 1
    60   24   25 2
    61   24   26 1
    62   24   27 1
    63   27   64 1
@<TRIPOS>MOLECULE
CHEMBL55572__1
   65    64     0     0     0
SMALL
USER_CHARGES

@<TRIPOS>ATOM
      1 C1         -0.0187    1.5258    0.0104 C.3       1 <0>        -0.1535
      2 C2          0.0021   -0.0041    0.0020 C.3       1 <0>        -0.1262
      3 C3          0.7182   -0.4975   -1.2568 C.3       1 <0>        -0.1211
      4 C4          0.7390   -2.0273   -1.2652 C.3       1 <0>        -0.1211
      5 C5          1.4551   -2.5207   -2.5240 C.3       1 <0>        -0.1204
      6 C6          1.4758   -4.0506   -2.5324 C.3       1 <0>        -0.1205
      7 C7          2.1920   -4.5440   -3.7912 C.3       1 <0>        -0.1202
      8 C8          2.2127   -6.0738   -3.7996 C.3       1 <0>        -0.1205
      9 C9          2.9289   -6.5673   -5.0584 C.3       1 <0>        -0.1199
     10 C10         2.9496   -8.0971   -5.0668 C.3       1 <0>        -0.1204
     11 C11         3.6658   -8.5905   -6.3257 C.3       1 <0>        -0.1192
     12 C12         3.6865  -10.1203   -6.3341 C.3       1 <0>        -0.1201
     13 C13         4.4026  -10.6138   -7.5929 C.3       1 <0>        -0.1183
     14 C14         4.4234  -12.1436   -7.6013 C.3       1 <0>        -0.1165
     15 C15         5.1395  -12.6370   -8.8601 C.3       1 <0>        -0.1151
     16 C16         5.1603  -14.1669   -8.8685 C.3       1 <0>        -0.1500
     17 C17         5.8764  -14.6603  -10.1273 C.3       1 <0>        -0.1026
     18 C18         5.8972  -16.1901  -10.1357 C.3       1 <0>        -1.0369
     19 O1          6.5883  -16.6635   -8.9780 O.3       1 <0>        -0.5073
     20 P1          4.1869  -16.8211  -10.1228 P.3       1 <0>         2.2850
     21 O2          4.2079  -18.3659  -10.1313 O.2       1 <0>        -1.0920
     22 O3          3.4637  -16.3229   -8.8516 O.3       1 <0>        -1.0928
     23 O4          3.4082  -16.2878  -11.4271 O.3       1 <0>        -0.8855
     24 P2          6.7504  -16.7780  -11.6356 P.3       1 <0>         2.2447
     25 O5          6.0032  -16.2662  -12.8873 O.2       1 <0>        -1.0884
     26 O6          8.1999  -16.2432  -11.6466 O.3       1 <0>        -1.1076
     27 O7          6.7723  -18.3878  -11.6444 O.3       1 <0>        -0.8742
     28 H1          1.0039    1.9031    0.0027 H         1 <0>         0.0529
     29 H2         -0.5459    1.8868   -0.8726 H         1 <0>         0.0530
     30 H3         -0.5289    1.8773    0.9072 H         1 <0>         0.0521
     31 H4          0.5293   -0.3651    0.8851 H         1 <0>         0.0601
     32 H5         -1.0205   -0.3814    0.0098 H         1 <0>         0.0602
     33 H6          0.1910   -0.1364   -2.1398 H         1 <0>         0.0604
     34 H7          1.7408   -0.1202   -1.2645 H         1 <0>         0.0602
     35 H8          1.2661   -2.3884   -0.3821 H         1 <0>         0.0603
     36 H9         -0.2836   -2.4046   -1.2575 H         1 <0>         0.0605
     37 H10         0.9279   -2.1597   -3.4071 H         1 <0>         0.0602
     38 H11         2.4777   -2.1435   -2.5317 H         1 <0>         0.0600
     39 H12         2.0030   -4.4117   -1.6494 H         1 <0>         0.0600
     40 H13         0.4533   -4.4279   -2.5247 H         1 <0>         0.0604
     41 H14         1.6648   -4.1829   -4.6743 H         1 <0>         0.0600
     42 H15         3.2146   -4.1667   -3.7990 H         1 <0>         0.0596
     43 H16         2.7399   -6.4349   -2.9166 H         1 <0>         0.0598
     44 H17         1.1901   -6.4511   -3.7919 H         1 <0>         0.0604
     45 H18         2.4017   -6.2062   -5.9415 H         1 <0>         0.0598
     46 H19         3.9515   -6.1900   -5.0662 H         1 <0>         0.0591
     47 H20         3.4768   -8.4582   -4.1838 H         1 <0>         0.0594
     48 H21         1.9270   -8.4744   -5.0591 H         1 <0>         0.0606
     49 H22         3.1386   -8.2294   -7.2087 H         1 <0>         0.0594
     50 H23         4.6884   -8.2132   -6.3334 H         1 <0>         0.0580
     51 H24         4.2137  -10.4814   -5.4510 H         1 <0>         0.0587
     52 H25         2.6639  -10.4976   -6.3263 H         1 <0>         0.0615
     53 H26         3.8755  -10.2527   -8.4759 H         1 <0>         0.0583
     54 H27         5.4252  -10.2365   -7.6006 H         1 <0>         0.0552
     55 H28         4.9506  -12.5047   -6.7182 H         1 <0>         0.0562
     56 H29         3.4008  -12.5209   -7.5935 H         1 <0>         0.0655
     57 H30         4.6123  -12.2759   -9.7431 H         1 <0>         0.0533
     58 H31         6.1621  -12.2597   -8.8678 H         1 <0>         0.0448
     59 H32         5.6875  -14.5279   -7.9854 H         1 <0>         0.0537
     60 H33         4.1377  -14.5441   -8.8608 H         1 <0>         0.1212
     61 H34         5.3492  -14.2992  -11.0104 H         1 <0>         0.0658
     62 H35         6.8990  -14.2830  -10.1350 H         1 <0>         0.0496
     63 H36         7.5065  -16.3660   -8.9191 H         1 <0>         0.3440
     64 H37         2.4900  -16.5852  -11.4861 H         1 <0>         0.4004
     65 H38         7.2120  -18.7710  -12.4158 H         1 <0>         0.3960
@<TRIPOS>BOND
     1    1    2 1
     2    1   28 1
     3    1   29 1
     4    1   30 1
     5    2    3 1
     6    2   31 1
     7    2   32 1
     8    3    4 1
     9    3   33 1
    10    3   34 1
    11    4    5 1
    12    4   35 1
    13    4   36 1
    14    5    6 1
    15    5   37 1
    16    5   38 1
    17    6    7 1
    18    6   39 1
    19    6   40 1
    20    7    8 1
    21    7   41 1
    22    7   42 1
    23    8    9 1
    24    8   43 1
    25    8   44 1
    26    9   10 1
    27    9   45 1
    28    9   46 1
    29   10   11 1
    30   10   47 1
    31   10   48 1
    32   11   12 1
    33   11   49 1
    34   11   50 1
    35   12   13 1
    36   12   51 1
    37   12   52 1
    38   13   14 1
    39   13   53 1
    40   13   54 1
    41   14   15 1
    42   14   55 1
    43   14   56 1
    44   15   16 1
    45   15   57 1
    46   15   58 1
    47   16   17 1
    48   16   59 1
    49   16   60 1
    50   17   18 1
    51   17   61 1
    52   17   62 1
    53   18   19 1
    54   18   20 1
    55   18   24 1
    56   19   63 1
    57   20   21 2
    58   20   22 1
    59   20   23 1
    60   23   64 1
    61   24   25 2
    62   24   26 1
    63   24   27 1
    64   27   65 1
@<TRIPOS>MOLECULE
CHEMBL54472
   30    30     0     0     0
SMALL
USER_CHARGES

@<TRIPOS>ATOM
      1 C1          0.2521    1.1029    0.5457 C.3       1 <0>        -0.1253
      2 C2          1.6766    1.5915    0.5120 C.3       1 <0>        -0.1355
      3 C3          2.1310    2.0488   -0.8879 C.3       1 <0>        -0.1329
      4 C4          1.6563    1.1026   -2.0042 C.3       1 <0>        -0.0763
      5 N1          1.7818   -0.2811   -1.6073 N.4       1 <0>        -0.2857
      6 C5          0.4658   -0.7262   -1.1166 C.3       1 <0>        -0.0312
      7 C6          0.2312   -0.4239    0.2923 C.3       1 <0>        -0.1326
      8 C7          2.1848   -1.0959   -2.7613 C.3       1 <0>        -1.1320
      9 P1          1.0134   -0.8290   -4.1323 P.3       1 <0>         2.1897
     10 O1         -0.4419   -1.1428   -3.6444 O.2       1 <0>        -1.1847
     11 O2          1.0951    0.6621   -4.6063 O.3       1 <0>        -1.1351
     12 O3          1.3802   -1.7768   -5.3246 O.3       1 <0>        -1.1532
     13 P2          3.8607   -0.6121   -3.2910 P.3       1 <0>         2.1889
     14 O4          3.8292    0.8500   -3.8527 O.2       1 <0>        -1.1195
     15 O5          4.8355   -0.6802   -2.0664 O.3       1 <0>        -1.1892
     16 O6          4.3577   -1.5905   -4.4091 O.3       1 <0>        -1.1490
     17 H1         -0.1830    1.3159    1.5221 H         1 <0>         0.0621
     18 H2         -0.3247    1.6085   -0.2289 H         1 <0>         0.0775
     19 H3          1.7756    2.4288    1.2028 H         1 <0>         0.0634
     20 H4          2.3306    0.7862    0.8465 H         1 <0>         0.0561
     21 H5          1.7338    3.0457   -1.0788 H         1 <0>         0.0802
     22 H6          3.2198    2.0966   -0.9064 H         1 <0>         0.0844
     23 H7          0.6118    1.3153   -2.2323 H         1 <0>         0.1068
     24 H8          2.2576    1.2738   -2.8971 H         1 <0>         0.2240
     25 H9         -0.3093   -0.2418   -1.7105 H         1 <0>         0.1498
     26 H10         0.3872   -1.8039   -1.2593 H         1 <0>         0.0950
     27 H11         1.0077   -0.8968    0.8936 H         1 <0>         0.0596
     28 H12        -0.7399   -0.8220    0.5866 H         1 <0>         0.0855
     29 H13         2.1822   -2.1492   -2.4810 H         1 <0>         0.0859
     30 H14         2.4675   -0.3653   -0.8719 H         1 <0>         0.3736
@<TRIPOS>BOND
     1    1    7 1
     2    1    2 1
     3    1   17 1
     4    1   18 1
     5    2    3 1
     6    2   19 1
     7    2   20 1
     8    3    4 1
     9    3   21 1
    10    3   22 1
    11    4    5 1
    12    4   23 1
    13    4   24 1
    14    5    6 1
    15    5    8 1
    16    5   30 1
    17    6    7 1
    18    6   25 1
    19    6   26 1
    20    7   27 1
    21    7   28 1
    22    8    9 1
    23    8   13 1
    24    8   29 1
    25    9   10 2
    26    9   11 1
    27    9   12 1
    28   13   14 2
    29   13   15 1
    30   13   16 1
@<TRIPOS>MOLECULE
CHEMBL54472__1
   31    31     0     0     0
SMALL
USER_CHARGES

@<TRIPOS>ATOM
      1 C1          0.2478    1.1012    0.5443 C.3       1 <0>        -0.1293
      2 C2          1.6721    1.5904    0.5123 C.3       1 <0>        -0.1374
      3 C3          2.1278    2.0482   -0.8871 C.3       1 <0>        -0.1348
      4 C4          1.6546    1.1022   -2.0041 C.3       1 <0>        -0.0777
      5 N1          1.7803   -0.2816   -1.6074 N.4       1 <0>        -0.2894
      6 C5          0.4640   -0.7274   -1.1182 C.3       1 <0>        -0.0238
      7 C6          0.2279   -0.4255    0.2905 C.3       1 <0>        -0.1367
      8 C7          2.1848   -1.0959   -2.7613 C.3       1 <0>        -1.1446
      9 P1          1.0149   -0.8288   -4.1336 P.3       1 <0>         2.1358
     10 O1         -0.4410   -1.1422   -3.6471 O.2       1 <0>        -1.1521
     11 O2          1.0975    0.6622   -4.6075 O.3       1 <0>        -1.1102
     12 O3          1.3827   -1.7767   -5.3254 O.3       1 <0>        -1.1391
     13 P2          3.8612   -0.6116   -3.2890 P.3       1 <0>         2.2702
     14 O4          3.8305    0.8307   -3.8420 O.2       1 <0>        -1.0480
     15 O5          4.8213   -0.6794   -2.0804 O.3       1 <0>        -1.1086
     16 O6          4.3733   -1.6162   -4.4381 O.3       1 <0>        -0.8780
     17 H1         -0.1883    1.3137    1.5204 H         1 <0>         0.0699
     18 H2         -0.3283    1.6067   -0.2306 H         1 <0>         0.0800
     19 H3          1.7701    2.4276    1.2034 H         1 <0>         0.0714
     20 H4          2.3262    0.7853    0.8471 H         1 <0>         0.0568
     21 H5          1.7303    3.0450   -1.0781 H         1 <0>         0.0899
     22 H6          3.2166    2.0965   -0.9045 H         1 <0>         0.0854
     23 H7          0.6103    1.3144   -2.2332 H         1 <0>         0.1205
     24 H8          2.2567    1.2739   -2.8964 H         1 <0>         0.2143
     25 H9         -0.3107   -0.2431   -1.7127 H         1 <0>         0.1568
     26 H10         0.3860   -1.8051   -1.2613 H         1 <0>         0.1019
     27 H11         1.0039   -0.8983    0.8924 H         1 <0>         0.0637
     28 H12        -0.7433   -0.8241    0.5837 H         1 <0>         0.0954
     29 H13         2.1821   -2.1493   -2.4814 H         1 <0>         0.1121
     30 H14         5.2607   -1.4178   -4.7672 H         1 <0>         0.4034
     31 H15         2.4653   -0.3657   -0.8714 H         1 <0>         0.3823
@<TRIPOS>BOND
     1    1    7 1
     2    1    2 1
     3    1   17 1
     4    1   18 1
     5    2    3 1
     6    2   19 1
     7    2   20 1
     8    3    4 1
     9    3   21 1
    10    3   22 1
    11    4    5 1
    12    4   23 1
    13    4   24 1
    14    5    6 1
    15    5    8 1
    16    5   31 1
    17    6    7 1
    18    6   25 1
    19    6   26 1
    20    7   27 1
    21    7   28 1
    22    8    9 1
    23    8   13 1
    24    8   29 1
    25    9   10 2
    26    9   11 1
    27    9   12 1
    28   13   14 2
    29   13   15 1
    30   13   16 1
    31   16   30 1
@<TRIPOS>MOLECULE
CHEMBL298547
   34    33     0     0     0
SMALL
USER_CHARGES

@<TRIPOS>ATOM
      1 C1         -0.0187    1.5258    0.0104 C.3       1 <0>        -0.1475
      2 C2          0.0021   -0.0041    0.0020 C.3       1 <0>        -0.1264
      3 C3         -1.4333   -0.5336    0.0129 C.3       1 <0>        -0.1176
      4 C4         -1.4126   -2.0635    0.0045 C.3       1 <0>        -0.1166
      5 C5         -2.8479   -2.5931    0.0153 C.3       1 <0>        -0.1133
      6 C6         -2.8272   -4.1229    0.0069 C.3       1 <0>        -0.1391
      7 C7         -4.2626   -4.6525    0.0178 C.3       1 <0>        -0.0831
      8 C8         -4.2418   -6.1823    0.0094 C.3       1 <0>        -1.0347
      9 O1         -3.5730   -6.6432   -1.1663 O.3       1 <0>        -0.5177
     10 P1         -3.3601   -6.7862    1.4863 P.3       1 <0>         2.2257
     11 O2         -1.8570   -6.3509    1.4115 O.2       1 <0>        -1.1792
     12 O3         -4.0168   -6.1775    2.7718 O.3       1 <0>        -1.1655
     13 O4         -3.4488   -8.3493    1.5447 O.3       1 <0>        -1.1785
     14 P2         -5.9521   -6.8133    0.0223 P.3       1 <0>         2.2729
     15 O5         -6.6752   -6.3151    1.2935 O.2       1 <0>        -1.0980
     16 O6         -6.6993   -6.3015   -1.2294 O.3       1 <0>        -1.1372
     17 O7         -5.9303   -8.4231    0.0134 O.3       1 <0>        -0.8692
     18 H1          1.0039    1.9031    0.0027 H         1 <0>         0.0447
     19 H2         -0.5459    1.8868   -0.8726 H         1 <0>         0.0484
     20 H3         -0.5289    1.8773    0.9072 H         1 <0>         0.0512
     21 H4          0.5123   -0.3556   -0.8948 H         1 <0>         0.0571
     22 H5          0.5293   -0.3651    0.8851 H         1 <0>         0.0620
     23 H6         -1.9435   -0.1821    0.9097 H         1 <0>         0.0584
     24 H7         -1.9605   -0.1726   -0.8702 H         1 <0>         0.0524
     25 H8         -0.9024   -2.4150   -0.8923 H         1 <0>         0.0527
     26 H9         -0.8854   -2.4246    0.8875 H         1 <0>         0.0669
     27 H10        -3.3581   -2.2415    0.9121 H         1 <0>         0.0529
     28 H11        -3.3751   -2.2320   -0.8677 H         1 <0>         0.0365
     29 H12        -2.3170   -4.4744   -0.8899 H         1 <0>         0.0406
     30 H13        -2.3000   -4.4840    0.8900 H         1 <0>         0.1239
     31 H14        -4.7728   -4.3010    0.9146 H         1 <0>         0.0664
     32 H15        -4.7898   -4.2914   -0.8653 H         1 <0>         0.0210
     33 H16        -3.9882   -6.3589   -1.9921 H         1 <0>         0.3106
     34 H17        -6.8082   -8.8284    0.0196 H         1 <0>         0.3793
@<TRIPOS>BOND
     1    1    2 1
     2    1   18 1
     3    1   19 1
     4    1   20 1
     5    2    3 1
     6    2   21 1
     7    2   22 1
     8    3    4 1
     9    3   23 1
    10    3   24 1
    11    4    5 1
    12    4   25 1
    13    4   26 1
    14    5    6 1
    15    5   27 1
    16    5   28 1
    17    6    7 1
    18    6   29 1
    19    6   30 1
    20    7    8 1
    21    7   31 1
    22    7   32 1
    23    8    9 1
    24    8   10 1
    25    8   14 1
    26    9   33 1
    27   10   11 2
    28   10   12 1
    29   10   13 1
    30   14   15 2
    31   14   16 1
    32   14   17 1
    33   17   34 1
@<TRIPOS>MOLECULE
CHEMBL298547__1
   35    34     0     0     0
SMALL
USER_CHARGES

@<TRIPOS>ATOM
      1 C1         -0.0187    1.5258    0.0104 C.3       1 <0>        -0.1497
      2 C2          0.0021   -0.0041    0.0020 C.3       1 <0>        -0.1261
      3 C3         -1.4333   -0.5336    0.0129 C.3       1 <0>        -0.1189
      4 C4         -1.4126   -2.0635    0.0045 C.3       1 <0>        -0.1170
      5 C5         -2.8479   -2.5931    0.0153 C.3       1 <0>        -0.1148
      6 C6         -2.8272   -4.1229    0.0069 C.3       1 <0>        -0.1488
      7 C7         -4.2626   -4.6525    0.0178 C.3       1 <0>        -0.1032
      8 C8         -4.2418   -6.1823    0.0094 C.3       1 <0>        -1.0340
      9 O1         -3.5507   -6.6557    1.1671 O.3       1 <0>        -0.5078
     10 P1         -5.9521   -6.8133    0.0223 P.3       1 <0>         2.2386
     11 O2         -5.9311   -8.3582    0.0138 O.2       1 <0>        -1.0830
     12 O3         -6.6752   -6.3151    1.2935 O.3       1 <0>        -1.1063
     13 O4         -6.7308   -6.2800   -1.2820 O.3       1 <0>        -0.8792
     14 P2         -3.3885   -6.7702   -1.4905 P.3       1 <0>         2.2874
     15 O5         -4.1358   -6.2584   -2.7422 O.2       1 <0>        -1.0934
     16 O6         -1.9391   -6.2354   -1.5015 O.3       1 <0>        -1.0970
     17 O7         -3.3667   -8.3801   -1.4994 O.3       1 <0>        -0.8800
     18 H1          1.0039    1.9031    0.0027 H         1 <0>         0.0478
     19 H2         -0.5459    1.8868   -0.8726 H         1 <0>         0.0518
     20 H3         -0.5289    1.8773    0.9072 H         1 <0>         0.0499
     21 H4          0.5123   -0.3556   -0.8948 H         1 <0>         0.0618
     22 H5          0.5293   -0.3651    0.8851 H         1 <0>         0.0582
     23 H6         -1.9435   -0.1821    0.9097 H         1 <0>         0.0547
     24 H7         -1.9605   -0.1726   -0.8702 H         1 <0>         0.0588
     25 H8         -0.9024   -2.4150   -0.8923 H         1 <0>         0.0667
     26 H9         -0.8854   -2.4246    0.8875 H         1 <0>         0.0554
     27 H10        -3.3581   -2.2415    0.9121 H         1 <0>         0.0426
     28 H11        -3.3751   -2.2320   -0.8677 H         1 <0>         0.0541
     29 H12        -2.3170   -4.4744   -0.8899 H         1 <0>         0.1273
     30 H13        -2.3000   -4.4840    0.8900 H         1 <0>         0.0506
     31 H14        -4.7728   -4.3010    0.9146 H         1 <0>         0.0477
     32 H15        -4.7898   -4.2914   -0.8653 H         1 <0>         0.0655
     33 H16        -3.9501   -6.3804    2.0036 H         1 <0>         0.3460
     34 H17        -7.6490   -6.5775   -1.3410 H         1 <0>         0.3988
     35 H18        -2.9270   -8.7632   -2.2707 H         1 <0>         0.3955
@<TRIPOS>BOND
     1    1    2 1
     2    1   18 1
     3    1   19 1
     4    1   20 1
     5    2    3 1
     6    2   21 1
     7    2   22 1
     8    3    4 1
     9    3   23 1
    10    3   24 1
    11    4    5 1
    12    4   25 1
    13    4   26 1
    14    5    6 1
    15    5   27 1
    16    5   28 1
    17    6    7 1
    18    6   29 1
    19    6   30 1
    20    7    8 1
    21    7   31 1
    22    7   32 1
    23    8    9 1
    24    8   10 1
    25    8   14 1
    26    9   33 1
    27   10   11 2
    28   10   12 1
    29   10   13 1
    30   13   34 1
    31   14   15 2
    32   14   16 1
    33   14   17 1
    34   17   35 1
@<TRIPOS>MOLECULE
CHEMBL56255
   30    29     0     0     0
SMALL
USER_CHARGES

@<TRIPOS>ATOM
      1 C1          0.4234    0.6696    1.2681 C.3       1 <0>        -0.1515
      2 C2          0.3432   -0.8199    0.9279 C.3       1 <0>        -0.1230
      3 C3          1.0151   -1.0713   -0.4235 C.3       1 <0>        -0.1160
      4 C4          0.9349   -2.5609   -0.7636 C.3       1 <0>        -0.1431
      5 C5          1.6068   -2.8123   -2.1150 C.3       1 <0>        -0.0324
      6 N1          1.5298   -4.2424   -2.4416 N.4       1 <0>        -0.4306
      7 C6          2.0549   -4.4645   -3.7955 C.3       1 <0>        -1.1467
      8 P1          3.8385   -4.0884   -3.8247 P.3       1 <0>         2.1290
      9 O1          4.0534   -2.5567   -3.5755 O.2       1 <0>        -1.1453
     10 O2          4.5632   -4.9069   -2.7025 O.3       1 <0>        -1.1218
     11 O3          4.4316   -4.4785   -5.2213 O.3       1 <0>        -1.1260
     12 P2          1.7929   -6.2048   -4.2710 P.3       1 <0>         2.2711
     13 O4          2.5302   -7.1274   -3.2749 O.2       1 <0>        -1.0700
     14 O5          0.2814   -6.5235   -4.2462 O.3       1 <0>        -1.1108
     15 O6          2.3684   -6.4481   -5.7548 O.3       1 <0>        -0.8694
     16 H1          1.4685    0.9748    1.3196 H         1 <0>         0.0569
     17 H2         -0.0860    1.2465    0.4962 H         1 <0>         0.0523
     18 H3         -0.0553    0.8488    2.2308 H         1 <0>         0.0502
     19 H4          0.8525   -1.3968    1.6998 H         1 <0>         0.0641
     20 H5         -0.7020   -1.1251    0.8764 H         1 <0>         0.0587
     21 H6          0.5058   -0.4944   -1.1954 H         1 <0>         0.0660
     22 H7          2.0602   -0.7661   -0.3719 H         1 <0>         0.0790
     23 H8          1.4442   -3.1378    0.0083 H         1 <0>         0.0818
     24 H9         -0.1102   -2.8660   -0.8151 H         1 <0>         0.0685
     25 H10         1.0975   -2.2354   -2.8869 H         1 <0>         0.1026
     26 H11         2.6519   -2.5071   -2.0635 H         1 <0>         0.1714
     27 H12         2.0777   -4.7690   -1.7778 H         1 <0>         0.4268
     28 H13         1.5348   -3.8136   -4.4982 H         1 <0>         0.1187
     29 H14         2.2627   -7.3548   -6.0738 H         1 <0>         0.4011
     30 H15         0.5684   -4.5457   -2.3998 H         1 <0>         0.3884
@<TRIPOS>BOND
     1    1    2 1
     2    1   16 1
     3    1   17 1
     4    1   18 1
     5    2    3 1
     6    2   19 1
     7    2   20 1
     8    3    4 1
     9    3   21 1
    10    3   22 1
    11    4    5 1
    12    4   23 1
    13    4   24 1
    14    5    6 1
    15    5   25 1
    16    5   26 1
    17    6    7 1
    18    6   27 1
    19    6   30 1
    20    7    8 1
    21    7   12 1
    22    7   28 1
    23    8    9 2
    24    8   10 1
    25    8   11 1
    26   12   13 2
    27   12   14 1
    28   12   15 1
    29   15   29 1
@<TRIPOS>MOLECULE
CHEMBL56255__1
   29    28     0     0     0
SMALL
USER_CHARGES

@<TRIPOS>ATOM
      1 C1          0.3578    0.6411    1.2754 C.3       1 <0>        -0.1494
      2 C2          0.2965   -0.8488    0.9330 C.3       1 <0>        -0.1230
      3 C3          0.9718   -1.0897   -0.4186 C.3       1 <0>        -0.1149
      4 C4          0.9105   -2.5797   -0.7610 C.3       1 <0>        -0.1431
      5 C5          1.5859   -2.8206   -2.1126 C.3       1 <0>        -0.0362
      6 N1          1.5270   -4.2511   -2.4413 N.4       1 <0>        -0.4298
      7 C6          2.0549   -4.4645   -3.7955 C.3       1 <0>        -1.1311
      8 P1          3.8335   -4.0653   -3.8242 P.3       1 <0>         2.1844
      9 O1          4.0285   -2.5313   -3.5732 O.2       1 <0>        -1.1791
     10 O2          4.5687   -4.8756   -2.7029 O.3       1 <0>        -1.1484
     11 O3          4.4316   -4.4461   -5.2213 O.3       1 <0>        -1.1388
     12 P2          1.8155   -6.2074   -4.2734 P.3       1 <0>         2.1779
     13 O4          2.6743   -7.1274   -3.3405 O.2       1 <0>        -1.1433
     14 O5          0.3019   -6.5851   -4.1295 O.3       1 <0>        -1.1909
     15 O6          2.2645   -6.4074   -5.7610 O.3       1 <0>        -1.1408
     16 H1          1.3990    0.9594    1.3276 H         1 <0>         0.0558
     17 H2         -0.1586    1.2127    0.5041 H         1 <0>         0.0513
     18 H3         -0.1234    0.8127    2.2382 H         1 <0>         0.0469
     19 H4          0.8128   -1.4204    1.7042 H         1 <0>         0.0629
     20 H5         -0.7447   -1.1671    0.8807 H         1 <0>         0.0575
     21 H6          0.4555   -0.5182   -1.1898 H         1 <0>         0.0640
     22 H7          2.0130   -0.7715   -0.3663 H         1 <0>         0.0771
     23 H8          1.4269   -3.1513    0.0102 H         1 <0>         0.0776
     24 H9         -0.1307   -2.8979   -0.8133 H         1 <0>         0.0644
     25 H10         1.0695   -2.2490   -2.8838 H         1 <0>         0.0942
     26 H11         2.6271   -2.5024   -2.0603 H         1 <0>         0.1657
     27 H12         2.0815   -4.7717   -1.7783 H         1 <0>         0.4183
     28 H13         1.5264   -3.8194   -4.4973 H         1 <0>         0.0909
     29 H14         0.5695   -4.5666   -2.4000 H         1 <0>         0.3800
@<TRIPOS>BOND
     1    1    2 1
     2    1   16 1
     3    1   17 1
     4    1   18 1
     5    2    3 1
     6    2   19 1
     7    2   20 1
     8    3    4 1
     9    3   21 1
    10    3   22 1
    11    4    5 1
    12    4   23 1
    13    4   24 1
    14    5    6 1
    15    5   25 1
    16    5   26 1
    17    6    7 1
    18    6   27 1
    19    6   29 1
    20    7    8 1
    21    7   12 1
    22    7   28 1
    23    8    9 2
    24    8   10 1
    25    8   11 1
    26   12   13 2
    27   12   14 1
    28   12   15 1
@<TRIPOS>MOLECULE
CHEMBL294192
   27    27     0     0     0
SMALL
USER_CHARGES

@<TRIPOS>ATOM
      1 C1         -0.0167    1.3788    0.0096 C.ar      1 <0>         0.0079
      2 C2          1.1946    2.0581    0.0017 C.ar      1 <0>        -0.2258
      3 C3          2.3728    1.3394   -0.0134 C.ar      1 <0>         0.1503
      4 N1          2.3606    0.0197   -0.0204 N.ar      1 <0>        -0.5187
      5 C4          1.2269   -0.6641   -0.0137 C.ar      1 <0>         0.4402
      6 C5          0.0021   -0.0041    0.0020 C.ar      1 <0>        -0.2033
      7 N2          1.2605   -2.0536   -0.0219 N.pl3     1 <0>        -0.5951
      8 C6          0.0099   -2.8167   -0.0145 C.3       1 <0>         0.1682
      9 C7          0.3258   -4.3137   -0.0260 C.3       1 <0>        -1.3178
     10 P1          1.2781   -4.7223   -1.5258 P.3       1 <0>         2.2001
     11 O1          0.4357   -4.3566   -2.7951 O.2       1 <0>        -1.1827
     12 O2          2.6155   -3.9063   -1.5337 O.3       1 <0>        -1.1529
     13 O3          1.6015   -6.2552   -1.5376 O.3       1 <0>        -1.1624
     14 P2          1.3060   -4.7392    1.4509 P.3       1 <0>         2.3063
     15 O4          2.6249   -3.9346    1.4432 O.2       1 <0>        -1.1035
     16 O5          0.4989   -4.3929    2.7220 O.3       1 <0>        -1.1323
     17 O6          1.6383   -6.3145    1.4389 O.3       1 <0>        -0.8782
     18 H1         -0.9522    1.9182    0.0259 H         1 <0>         0.1524
     19 H2          1.2145    3.1379    0.0070 H         1 <0>         0.1575
     20 H3          3.3170    1.8637   -0.0200 H         1 <0>         0.1878
     21 H4         -0.9214   -0.5640    0.0078 H         1 <0>         0.1638
     22 H5          2.1120   -2.5181   -0.0325 H         1 <0>         0.4565
     23 H6         -0.5595   -2.5724    0.8822 H         1 <0>         0.0676
     24 H7         -0.5762   -2.5622   -0.8976 H         1 <0>         0.0759
     25 H8         -0.6047   -4.8814   -0.0205 H         1 <0>         0.1002
     26 H9          2.1589   -6.6125    2.1974 H         1 <0>         0.3921
     27 H10         3.2030   -0.4611   -0.0310 H         1 <0>         0.4460
@<TRIPOS>BOND
     1    1    6 ar
     2    1    2 ar
     3    1   18 1
     4    2    3 ar
     5    2   19 1
     6    3    4 ar
     7    3   20 1
     8    4    5 ar
     9    4   27 1
    10    5    6 ar
    11    5    7 1
    12    6   21 1
    13    7    8 1
    14    7   22 1
    15    8    9 1
    16    8   23 1
    17    8   24 1
    18    9   10 1
    19    9   14 1
    20    9   25 1
    21   10   11 2
    22   10   12 1
    23   10   13 1
    24   14   15 2
    25   14   16 1
    26   14   17 1
    27   17   26 1
@<TRIPOS>MOLECULE
CHEMBL294192__1
   27    27     0     0     0
SMALL
USER_CHARGES

@<TRIPOS>ATOM
      1 C1         -0.0167    1.3788    0.0096 C.ar      1 <0>        -0.0348
      2 C2          1.1946    2.0581    0.0017 C.ar      1 <0>        -0.2761
      3 C3          2.3728    1.3394   -0.0134 C.ar      1 <0>         0.1504
      4 N1          2.3606    0.0197   -0.0204 N.ar      1 <0>        -0.5391
      5 C4          1.2269   -0.6641   -0.0132 C.ar      1 <0>         0.4264
      6 C5          0.0021   -0.0041    0.0020 C.ar      1 <0>        -0.2612
      7 N2          1.2605   -2.0537   -0.0210 N.pl3     1 <0>        -0.6900
      8 C6          0.0099   -2.8167   -0.0132 C.3       1 <0>         0.1786
      9 C7          0.3258   -4.3137   -0.0242 C.3       1 <0>        -1.3110
     10 P1          1.2778   -4.7228   -1.5241 P.3       1 <0>         2.2752
     11 O1          1.9164   -6.1205   -1.3635 O.2       1 <0>        -1.0892
     12 O2          0.3349   -4.7249   -2.7480 O.3       1 <0>        -1.1131
     13 O3          2.4358   -3.6254   -1.7406 O.3       1 <0>        -0.8868
     14 P2          1.3063   -4.7388    1.4527 P.3       1 <0>         2.2843
     15 O4          2.6251   -3.9341    1.4444 O.2       1 <0>        -1.0917
     16 O5          0.4994   -4.3920    2.7238 O.3       1 <0>        -1.1142
     17 O6          1.6386   -6.3140    1.4411 O.3       1 <0>        -0.8784
     18 H1         -0.9522    1.9182    0.0259 H         1 <0>         0.1191
     19 H2          1.2145    3.1379    0.0070 H         1 <0>         0.1169
     20 H3          3.3170    1.8637   -0.0200 H         1 <0>         0.1448
     21 H4         -0.9214   -0.5640    0.0078 H         1 <0>         0.1225
     22 H5          2.1120   -2.5181   -0.0316 H         1 <0>         0.4366
     23 H6         -0.5593   -2.5721    0.8836 H         1 <0>         0.0587
     24 H7         -0.5763   -2.5625   -0.8962 H         1 <0>         0.0515
     25 H8         -0.6047   -4.8814   -0.0184 H         1 <0>         0.1200
     26 H9          2.9834   -3.7805   -2.5224 H         1 <0>         0.4028
     27 H10         2.1593   -6.6118    2.1996 H         1 <0>         0.3979
@<TRIPOS>BOND
     1    1    6 ar
     2    1    2 ar
     3    1   18 1
     4    2    3 ar
     5    2   19 1
     6    3    4 ar
     7    3   20 1
     8    4    5 ar
     9    5    6 ar
    10    5    7 1
    11    6   21 1
    12    7    8 1
    13    7   22 1
    14    8    9 1
    15    8   23 1
    16    8   24 1
    17    9   10 1
    18    9   14 1
    19    9   25 1
    20   10   11 2
    21   10   12 1
    22   10   13 1
    23   13   26 1
    24   14   15 2
    25   14   16 1
    26   14   17 1
    27   17   27 1
@<TRIPOS>MOLECULE
CHEMBL294192__2
   26    26     0     0     0
SMALL
USER_CHARGES

@<TRIPOS>ATOM
      1 C1         -0.0167    1.3788    0.0096 C.ar      1 <0>        -0.0358
      2 C2          1.1946    2.0581    0.0017 C.ar      1 <0>        -0.3064
      3 C3          2.3728    1.3394   -0.0134 C.ar      1 <0>         0.1531
      4 N1          2.3606    0.0197   -0.0204 N.ar      1 <0>        -0.5393
      5 C4          1.2269   -0.6641   -0.0132 C.ar      1 <0>         0.4265
      6 C5          0.0021   -0.0041    0.0020 C.ar      1 <0>        -0.2728
      7 N2          1.2605   -2.0537   -0.0210 N.pl3     1 <0>        -0.6492
      8 C6          0.0099   -2.8167   -0.0132 C.3       1 <0>         0.1922
      9 C7          0.3258   -4.3137   -0.0242 C.3       1 <0>        -1.3086
     10 P1          1.2778   -4.7228   -1.5241 P.3       1 <0>         2.2127
     11 O1          0.4352   -4.3575   -2.7933 O.2       1 <0>        -1.1951
     12 O2          2.6152   -3.9068   -1.5325 O.3       1 <0>        -1.1496
     13 O3          1.6013   -6.2557   -1.5354 O.3       1 <0>        -1.1783
     14 P2          1.3063   -4.7388    1.4527 P.3       1 <0>         2.2986
     15 O4          2.6251   -3.9341    1.4444 O.2       1 <0>        -1.0918
     16 O5          0.4994   -4.3920    2.7238 O.3       1 <0>        -1.1391
     17 O6          1.6386   -6.3140    1.4411 O.3       1 <0>        -0.8805
     18 H1         -0.9522    1.9182    0.0259 H         1 <0>         0.1092
     19 H2          1.2145    3.1379    0.0070 H         1 <0>         0.1062
     20 H3          3.3170    1.8637   -0.0200 H         1 <0>         0.1364
     21 H4         -0.9214   -0.5640    0.0078 H         1 <0>         0.1176
     22 H5          2.1120   -2.5181   -0.0316 H         1 <0>         0.4527
     23 H6         -0.5593   -2.5721    0.8836 H         1 <0>         0.0348
     24 H7         -0.5763   -2.5625   -0.8962 H         1 <0>         0.0440
     25 H8         -0.6047   -4.8814   -0.0184 H         1 <0>         0.0781
     26 H9          2.1593   -6.6118    2.1996 H         1 <0>         0.3846
@<TRIPOS>BOND
     1    1    6 ar
     2    1    2 ar
     3    1   18 1
     4    2    3 ar
     5    2   19 1
     6    3    4 ar
     7    3   20 1
     8    4    5 ar
     9    5    6 ar
    10    5    7 1
    11    6   21 1
    12    7    8 1
    13    7   22 1
    14    8    9 1
    15    8   23 1
    16    8   24 1
    17    9   10 1
    18    9   14 1
    19    9   25 1
    20   10   11 2
    21   10   12 1
    22   10   13 1
    23   14   15 2
    24   14   16 1
    25   14   17 1
    26   17   26 1
@<TRIPOS>MOLECULE
CHEMBL294192__3
   28    28     0     0     0
SMALL
USER_CHARGES

@<TRIPOS>ATOM
      1 C1         -0.0167    1.3788    0.0096 C.ar      1 <0>         0.0227
      2 C2          1.1946    2.0581    0.0017 C.ar      1 <0>        -0.2011
      3 C3          2.3728    1.3394   -0.0134 C.ar      1 <0>         0.1471
      4 N1          2.3606    0.0197   -0.0204 N.ar      1 <0>        -0.5113
      5 C4          1.2269   -0.6641   -0.0137 C.ar      1 <0>         0.4540
      6 C5          0.0021   -0.0041    0.0020 C.ar      1 <0>        -0.2027
      7 N2          1.2605   -2.0536   -0.0219 N.pl3     1 <0>        -0.6564
      8 C6          0.0099   -2.8167   -0.0145 C.3       1 <0>         0.1578
      9 C7          0.3258   -4.3137   -0.0260 C.3       1 <0>        -1.3142
     10 P1          1.2781   -4.7223   -1.5258 P.3       1 <0>         2.2784
     11 O1          0.4474   -4.3616   -2.7776 O.2       1 <0>        -1.1036
     12 O2          2.5970   -3.9176   -1.5336 O.3       1 <0>        -1.0952
     13 O3          1.6105   -6.2976   -1.5379 O.3       1 <0>        -0.8805
     14 P2          1.3060   -4.7392    1.4509 P.3       1 <0>         2.2535
     15 O4          0.4989   -4.3929    2.7220 O.2       1 <0>        -1.0956
     16 O5          1.6249   -6.2509    1.4394 O.3       1 <0>        -1.0770
     17 O6          2.6803   -3.9007    1.4428 O.3       1 <0>        -0.8987
     18 H1         -0.9522    1.9182    0.0259 H         1 <0>         0.1628
     19 H2          1.2145    3.1379    0.0070 H         1 <0>         0.1682
     20 H3          3.3170    1.8637   -0.0200 H         1 <0>         0.1969
     21 H4         -0.9214   -0.5640    0.0078 H         1 <0>         0.1706
     22 H5          2.1120   -2.5181   -0.0325 H         1 <0>         0.4449
     23 H6         -0.5595   -2.5724    0.8822 H         1 <0>         0.0876
     24 H7         -0.5762   -2.5622   -0.8976 H         1 <0>         0.0876
     25 H8         -0.6047   -4.8814   -0.0205 H         1 <0>         0.1391
     26 H9          2.1167   -6.5868   -2.3094 H         1 <0>         0.4068
     27 H10         3.2533   -4.0773    2.2016 H         1 <0>         0.4130
     28 H11         3.2030   -0.4611   -0.0310 H         1 <0>         0.4453
@<TRIPOS>BOND
     1    1    6 ar
     2    1    2 ar
     3    1   18 1
     4    2    3 ar
     5    2   19 1
     6    3    4 ar
     7    3   20 1
     8    4    5 ar
     9    4   28 1
    10    5    6 ar
    11    5    7 1
    12    6   21 1
    13    7    8 1
    14    7   22 1
    15    8    9 1
    16    8   23 1
    17    8   24 1
    18    9   10 1
    19    9   14 1
    20    9   25 1
    21   10   11 2
    22   10   12 1
    23   10   13 1
    24   13   26 1
    25   14   15 2
    26   14   16 1
    27   14   17 1
    28   17   27 1
@<TRIPOS>MOLECULE
CHEMBL56253
   31    31     0     0     0
SMALL
USER_CHARGES

@<TRIPOS>ATOM
      1 C1         -0.3798    0.3450   -0.1619 C.3       1 <0>        -0.1184
      2 C2          0.8976    1.1762   -0.0267 C.3       1 <0>        -0.1134
      3 C3          1.7512    1.0080   -1.2853 C.3       1 <0>        -0.1217
      4 C4          2.1185   -0.4671   -1.4590 C.3       1 <0>        -0.0190
      5 C5          0.8411   -1.2982   -1.5943 C.3       1 <0>        -0.1356
      6 C6         -0.0124   -1.1300   -0.3357 C.3       1 <0>        -0.1115
      7 N1          2.9380   -0.6285   -2.6675 N.4       1 <0>        -0.4275
      8 C7          4.2193    0.0668   -2.4867 C.3       1 <0>        -1.1481
      9 P1          5.1843   -0.7664   -1.1837 P.3       1 <0>         2.1350
     10 O1          4.4629   -0.5877    0.1955 O.2       1 <0>        -1.1386
     11 O2          5.3031   -2.2926   -1.5169 O.3       1 <0>        -1.1240
     12 O3          6.6162   -0.1350   -1.1097 O.3       1 <0>        -1.1274
     13 P2          5.1548    0.0334   -4.0510 P.3       1 <0>         2.2715
     14 O4          5.4179   -1.4323   -4.4626 O.2       1 <0>        -1.0716
     15 O5          4.3370    0.7396   -5.1553 O.3       1 <0>        -1.1113
     16 O6          6.5591    0.7955   -3.8529 O.3       1 <0>        -0.8696
     17 H1         -0.9878    0.4648    0.7347 H         1 <0>         0.0640
     18 H2         -0.9434    0.6839   -1.0311 H         1 <0>         0.0574
     19 H3          0.6360    2.2270    0.0971 H         1 <0>         0.0644
     20 H4          1.4613    0.8373    0.8426 H         1 <0>         0.0841
     21 H5          1.1875    1.3469   -2.1545 H         1 <0>         0.0598
     22 H6          2.6612    1.6001   -1.1889 H         1 <0>         0.0800
     23 H7          2.6822   -0.8060   -0.5898 H         1 <0>         0.1914
     24 H8          0.2774   -0.9593   -2.4635 H         1 <0>         0.0664
     25 H9          1.1028   -2.3491   -1.7181 H         1 <0>         0.0829
     26 H10         0.5512   -1.4690    0.5335 H         1 <0>         0.0787
     27 H11        -0.9225   -1.7222   -0.4320 H         1 <0>         0.0677
     28 H12         3.1078   -1.6097   -2.8300 H         1 <0>         0.4258
     29 H13         4.0338    1.1009   -2.1963 H         1 <0>         0.1231
     30 H14         7.1106    0.8167   -4.6469 H         1 <0>         0.4006
     31 H15         2.4510   -0.2358   -3.4591 H         1 <0>         0.3851
@<TRIPOS>BOND
     1    1    6 1
     2    1    2 1
     3    1   17 1
     4    1   18 1
     5    2    3 1
     6    2   19 1
     7    2   20 1
     8    3    4 1
     9    3   21 1
    10    3   22 1
    11    4    5 1
    12    4    7 1
    13    4   23 1
    14    5    6 1
    15    5   24 1
    16    5   25 1
    17    6   26 1
    18    6   27 1
    19    7    8 1
    20    7   28 1
    21    7   31 1
    22    8    9 1
    23    8   13 1
    24    8   29 1
    25    9   10 2
    26    9   11 1
    27    9   12 1
    28   13   14 2
    29   13   15 1
    30   13   16 1
    31   16   30 1
@<TRIPOS>MOLECULE
CHEMBL56253__1
   30    30     0     0     0
SMALL
USER_CHARGES

@<TRIPOS>ATOM
      1 C1         -0.3798    0.3450   -0.1619 C.3       1 <0>        -0.1153
      2 C2          0.8976    1.1762   -0.0267 C.3       1 <0>        -0.1117
      3 C3          1.7512    1.0080   -1.2853 C.3       1 <0>        -0.1209
      4 C4          2.1185   -0.4671   -1.4590 C.3       1 <0>        -0.0236
      5 C5          0.8411   -1.2982   -1.5943 C.3       1 <0>        -0.1362
      6 C6         -0.0124   -1.1301   -0.3357 C.3       1 <0>        -0.1092
      7 N1          2.9380   -0.6285   -2.6675 N.4       1 <0>        -0.4265
      8 C7          4.2193    0.0668   -2.4867 C.3       1 <0>        -1.1313
      9 P1          5.1843   -0.7664   -1.1837 P.3       1 <0>         2.1876
     10 O1          4.4629   -0.5877    0.1955 O.2       1 <0>        -1.1715
     11 O2          5.3031   -2.2926   -1.5169 O.3       1 <0>        -1.1525
     12 O3          6.6162   -0.1350   -1.1097 O.3       1 <0>        -1.1367
     13 P2          5.1548    0.0334   -4.0510 P.3       1 <0>         2.1789
     14 O4          5.4216   -1.4529   -4.4683 O.2       1 <0>        -1.1496
     15 O5          4.3255    0.7495   -5.1708 O.3       1 <0>        -1.1916
     16 O6          6.5213    0.7750   -3.8582 O.3       1 <0>        -1.1371
     17 H1         -0.9878    0.4648    0.7347 H         1 <0>         0.0581
     18 H2         -0.9434    0.6839   -1.0311 H         1 <0>         0.0548
     19 H3          0.6360    2.2270    0.0971 H         1 <0>         0.0594
     20 H4          1.4613    0.8373    0.8425 H         1 <0>         0.0821
     21 H5          1.1875    1.3469   -2.1545 H         1 <0>         0.0549
     22 H6          2.6612    1.6001   -1.1889 H         1 <0>         0.0837
     23 H7          2.6822   -0.8060   -0.5898 H         1 <0>         0.1866
     24 H8          0.2774   -0.9593   -2.4635 H         1 <0>         0.0618
     25 H9          1.1028   -2.3491   -1.7181 H         1 <0>         0.0789
     26 H10         0.5512   -1.4690    0.5335 H         1 <0>         0.0765
     27 H11        -0.9225   -1.7222   -0.4320 H         1 <0>         0.0610
     28 H12         3.1078   -1.6098   -2.8300 H         1 <0>         0.4181
     29 H13         4.0338    1.1009   -2.1963 H         1 <0>         0.0960
     30 H14         2.4510   -0.2358   -3.4591 H         1 <0>         0.3755
@<TRIPOS>BOND
     1    1    6 1
     2    1    2 1
     3    1   17 1
     4    1   18 1
     5    2    3 1
     6    2   19 1
     7    2   20 1
     8    3    4 1
     9    3   21 1
    10    3   22 1
    11    4    5 1
    12    4    7 1
    13    4   23 1
    14    5    6 1
    15    5   24 1
    16    5   25 1
    17    6   26 1
    18    6   27 1
    19    7    8 1
    20    7   28 1
    21    7   30 1
    22    8    9 1
    23    8   13 1
    24    8   29 1
    25    9   10 2
    26    9   11 1
    27    9   12 1
    28   13   14 2
    29   13   15 1
    30   13   16 1
@<TRIPOS>MOLECULE
CHEMBL293522
   28    28     0     0     0
SMALL
USER_CHARGES

@<TRIPOS>ATOM
      1 C1         -0.0167    1.3776    0.0096 C.ar      1 <0>        -0.1740
      2 C2          1.1849    2.0698    0.0019 C.ar      1 <0>        -0.0748
      3 C3          2.3651    1.3426   -0.0133 C.ar      1 <0>        -0.0819
      4 C4          2.3054   -0.0383   -0.0202 C.ar      1 <0>         0.0801
      5 N1          1.1443   -0.6632   -0.0129 N.ar      1 <0>        -0.4950
      6 C5          0.0021   -0.0041    0.0020 C.ar      1 <0>         0.0530
      7 C6          3.6964    2.0488   -0.0227 C.3       1 <0>        -0.1111
      8 C7          4.1610    2.2805    1.4165 C.3       1 <0>        -0.0729
      9 C8          5.5125    2.9975    1.4069 C.3       1 <0>        -1.0327
     10 O1          6.4735    2.1934    0.7198 O.3       1 <0>        -0.5172
     11 P1          5.3436    4.6015    0.5573 P.3       1 <0>         2.2211
     12 O2          4.9921    4.3595   -0.9502 O.2       1 <0>        -1.1774
     13 O3          4.2003    5.4326    1.2331 O.3       1 <0>        -1.1627
     14 O4          6.6930    5.3909    0.6587 O.3       1 <0>        -1.1750
     15 P2          6.0661    3.2736    3.1218 P.3       1 <0>         2.2735
     16 O5          5.0272    4.1430    3.8647 O.2       1 <0>        -1.0967
     17 O6          6.2093    1.9142    3.8419 O.3       1 <0>        -1.1350
     18 O7          7.4884    4.0280    3.1117 O.3       1 <0>        -0.8692
     19 H1         -0.9552    1.9117    0.0259 H         1 <0>         0.1246
     20 H2          1.2009    3.1496    0.0072 H         1 <0>         0.1434
     21 H3          3.2203   -0.6121   -0.0320 H         1 <0>         0.1482
     22 H4         -0.9294   -0.5505    0.0083 H         1 <0>         0.1402
     23 H5          4.4293    1.4355   -0.5468 H         1 <0>         0.0613
     24 H6          3.5953    3.0079   -0.5308 H         1 <0>         0.1391
     25 H7          3.4280    2.8939    1.9406 H         1 <0>         0.0702
     26 H8          4.2620    1.3215    1.9245 H         1 <0>         0.0272
     27 H9          6.6148    1.3234    1.1176 H         1 <0>         0.3131
     28 H10         7.8444    4.2079    3.9926 H         1 <0>         0.3804
@<TRIPOS>BOND
     1    1    6 ar
     2    1    2 ar
     3    1   19 1
     4    2    3 ar
     5    2   20 1
     6    3    4 ar
     7    3    7 1
     8    4    5 ar
     9    4   21 1
    10    5    6 ar
    11    6   22 1
    12    7    8 1
    13    7   23 1
    14    7   24 1
    15    8    9 1
    16    8   25 1
    17    8   26 1
    18    9   10 1
    19    9   11 1
    20    9   15 1
    21   10   27 1
    22   11   12 2
    23   11   13 1
    24   11   14 1
    25   15   16 2
    26   15   17 1
    27   15   18 1
    28   18   28 1
@<TRIPOS>MOLECULE
CHEMBL293522__1
   29    29     0     0     0
SMALL
USER_CHARGES

@<TRIPOS>ATOM
      1 C1         -0.0167    1.3776    0.0096 C.ar      1 <0>        -0.1724
      2 C2          1.1849    2.0698    0.0019 C.ar      1 <0>        -0.0773
      3 C3          2.3651    1.3426   -0.0133 C.ar      1 <0>        -0.0985
      4 C4          2.3054   -0.0383   -0.0202 C.ar      1 <0>         0.0894
      5 N1          1.1443   -0.6632   -0.0129 N.ar      1 <0>        -0.4894
      6 C5          0.0021   -0.0041    0.0020 C.ar      1 <0>         0.0675
      7 C6          3.6964    2.0488   -0.0227 C.3       1 <0>        -0.1174
      8 C7          4.1610    2.2805    1.4165 C.3       1 <0>        -0.0940
      9 C8          5.5125    2.9975    1.4069 C.3       1 <0>        -1.0358
     10 O1          6.4735    2.1934    0.7198 O.3       1 <0>        -0.5066
     11 P1          5.3436    4.6015    0.5573 P.3       1 <0>         2.2828
     12 O2          6.7084    5.3255    0.5476 O.2       1 <0>        -1.0889
     13 O3          4.8744    4.3675   -0.8961 O.3       1 <0>        -1.0921
     14 O4          4.2609    5.5075    1.3314 O.3       1 <0>        -0.8853
     15 P2          6.0661    3.2736    3.1218 P.3       1 <0>         2.2446
     16 O5          5.0272    4.1430    3.8647 O.2       1 <0>        -1.0869
     17 O6          6.2093    1.9142    3.8419 O.3       1 <0>        -1.1054
     18 O7          7.4884    4.0280    3.1117 O.3       1 <0>        -0.8741
     19 H1         -0.9552    1.9117    0.0259 H         1 <0>         0.1288
     20 H2          1.2009    3.1496    0.0072 H         1 <0>         0.1370
     21 H3          3.2203   -0.6121   -0.0320 H         1 <0>         0.1508
     22 H4         -0.9294   -0.5505    0.0083 H         1 <0>         0.1464
     23 H5          4.4293    1.4355   -0.5468 H         1 <0>         0.0725
     24 H6          3.5953    3.0079   -0.5308 H         1 <0>         0.1354
     25 H7          3.4280    2.8939    1.9406 H         1 <0>         0.0694
     26 H8          4.2620    1.3215    1.9245 H         1 <0>         0.0551
     27 H9          6.6148    1.3234    1.1176 H         1 <0>         0.3461
     28 H10         4.1196    6.3774    0.9336 H         1 <0>         0.4015
     29 H11         7.8444    4.2079    3.9926 H         1 <0>         0.3969
@<TRIPOS>BOND
     1    1    6 ar
     2    1    2 ar
     3    1   19 1
     4    2    3 ar
     5    2   20 1
     6    3    4 ar
     7    3    7 1
     8    4    5 ar
     9    4   21 1
    10    5    6 ar
    11    6   22 1
    12    7    8 1
    13    7   23 1
    14    7   24 1
    15    8    9 1
    16    8   25 1
    17    8   26 1
    18    9   10 1
    19    9   11 1
    20    9   15 1
    21   10   27 1
    22   11   12 2
    23   11   13 1
    24   11   14 1
    25   14   28 1
    26   15   16 2
    27   15   17 1
    28   15   18 1
    29   18   29 1
@<TRIPOS>MOLECULE
CHEMBL55837
   58    57     0     0     0
SMALL
USER_CHARGES

@<TRIPOS>ATOM
      1 C1         -0.0187    1.5258    0.0104 C.3       1 <0>        -0.1528
      2 C2          0.0021   -0.0041    0.0020 C.3       1 <0>        -0.1263
      3 C3          0.7182   -0.4975   -1.2568 C.3       1 <0>        -0.1209
      4 C4          0.7390   -2.0273   -1.2652 C.3       1 <0>        -0.1211
      5 C5          1.4551   -2.5207   -2.5240 C.3       1 <0>        -0.1201
      6 C6          1.4758   -4.0506   -2.5324 C.3       1 <0>        -0.1205
      7 C7          2.1920   -4.5440   -3.7912 C.3       1 <0>        -0.1195
      8 C8          2.2127   -6.0738   -3.7996 C.3       1 <0>        -0.1205
      9 C9          2.9289   -6.5673   -5.0584 C.3       1 <0>        -0.1185
     10 C10         2.9496   -8.0971   -5.0668 C.3       1 <0>        -0.1202
     11 C11         3.6658   -8.5905   -6.3257 C.3       1 <0>        -0.1168
     12 C12         3.6865  -10.1203   -6.3341 C.3       1 <0>        -0.1160
     13 C13         4.4026  -10.6138   -7.5929 C.3       1 <0>        -0.1131
     14 C14         4.4234  -12.1436   -7.6013 C.3       1 <0>        -0.1387
     15 C15         5.1395  -12.6370   -8.8601 C.3       1 <0>        -0.0832
     16 C16         5.1603  -14.1669   -8.8685 C.3       1 <0>        -1.0345
     17 O1          5.8514  -14.6402   -7.7108 O.3       1 <0>        -0.5177
     18 P1          3.4500  -14.7978   -8.8556 P.3       1 <0>         2.2258
     19 O2          2.7568  -14.4001   -7.5081 O.2       1 <0>        -1.1791
     20 O3          2.6553  -14.1773  -10.0547 O.3       1 <0>        -1.1657
     21 O4          3.4681  -16.3584   -8.9928 O.3       1 <0>        -1.1785
     22 P2          6.0136  -14.7548  -10.3684 P.3       1 <0>         2.2728
     23 O5          5.2663  -14.2430  -11.6200 O.2       1 <0>        -1.0980
     24 O6          7.4630  -14.2200  -10.3793 O.3       1 <0>        -1.1370
     25 O7          6.0354  -16.3646  -10.3772 O.3       1 <0>        -0.8692
     26 H1          1.0039    1.9031    0.0027 H         1 <0>         0.0525
     27 H2         -0.5459    1.8868   -0.8726 H         1 <0>         0.0528
     28 H3         -0.5289    1.8773    0.9072 H         1 <0>         0.0509
     29 H4          0.5293   -0.3651    0.8851 H         1 <0>         0.0598
     30 H5         -1.0205   -0.3814    0.0098 H         1 <0>         0.0602
     31 H6          0.1910   -0.1364   -2.1398 H         1 <0>         0.0603
     32 H7          1.7408   -0.1202   -1.2645 H         1 <0>         0.0598
     33 H8          1.2661   -2.3884   -0.3821 H         1 <0>         0.0599
     34 H9         -0.2836   -2.4046   -1.2575 H         1 <0>         0.0605
     35 H10         0.9279   -2.1597   -3.4071 H         1 <0>         0.0601
     36 H11         2.4777   -2.1435   -2.5317 H         1 <0>         0.0593
     37 H12         2.0030   -4.4117   -1.6494 H         1 <0>         0.0594
     38 H13         0.4533   -4.4279   -2.5247 H         1 <0>         0.0606
     39 H14         1.6648   -4.1829   -4.6743 H         1 <0>         0.0598
     40 H15         3.2146   -4.1667   -3.7990 H         1 <0>         0.0584
     41 H16         2.7399   -6.4349   -2.9166 H         1 <0>         0.0587
     42 H17         1.1901   -6.4511   -3.7919 H         1 <0>         0.0609
     43 H18         2.4017   -6.2062   -5.9415 H         1 <0>         0.0594
     44 H19         3.9515   -6.1900   -5.0662 H         1 <0>         0.0567
     45 H20         3.4768   -8.4582   -4.1838 H         1 <0>         0.0573
     46 H21         1.9270   -8.4744   -5.0591 H         1 <0>         0.0621
     47 H22         3.1386   -8.2294   -7.2087 H         1 <0>         0.0582
     48 H23         4.6884   -8.2132   -6.3334 H         1 <0>         0.0523
     49 H24         4.2137  -10.4814   -5.4510 H         1 <0>         0.0525
     50 H25         2.6639  -10.4976   -6.3263 H         1 <0>         0.0667
     51 H26         3.8755  -10.2527   -8.4759 H         1 <0>         0.0528
     52 H27         5.4252  -10.2365   -7.6006 H         1 <0>         0.0364
     53 H28         4.9506  -12.5047   -6.7182 H         1 <0>         0.0404
     54 H29         3.4008  -12.5209   -7.5935 H         1 <0>         0.1237
     55 H30         4.6123  -12.2759   -9.7431 H         1 <0>         0.0663
     56 H31         6.1621  -12.2597   -8.8678 H         1 <0>         0.0209
     57 H32         6.7696  -14.3427   -7.6518 H         1 <0>         0.3106
     58 H33         6.4751  -16.7477  -11.1486 H         1 <0>         0.3793
@<TRIPOS>BOND
     1    1    2 1
     2    1   26 1
     3    1   27 1
     4    1   28 1
     5    2    3 1
     6    2   29 1
     7    2   30 1
     8    3    4 1
     9    3   31 1
    10    3   32 1
    11    4    5 1
    12    4   33 1
    13    4   34 1
    14    5    6 1
    15    5   35 1
    16    5   36 1
    17    6    7 1
    18    6   37 1
    19    6   38 1
    20    7    8 1
    21    7   39 1
    22    7   40 1
    23    8    9 1
    24    8   41 1
    25    8   42 1
    26    9   10 1
    27    9   43 1
    28    9   44 1
    29   10   11 1
    30   10   45 1
    31   10   46 1
    32   11   12 1
    33   11   47 1
    34   11   48 1
    35   12   13 1
    36   12   49 1
    37   12   50 1
    38   13   14 1
    39   13   51 1
    40   13   52 1
    41   14   15 1
    42   14   53 1
    43   14   54 1
    44   15   16 1
    45   15   55 1
    46   15   56 1
    47   16   17 1
    48   16   18 1
    49   16   22 1
    50   17   57 1
    51   18   19 2
    52   18   20 1
    53   18   21 1
    54   22   23 2
    55   22   24 1
    56   22   25 1
    57   25   58 1
@<TRIPOS>MOLECULE
CHEMBL55837__1
   59    58     0     0     0
SMALL
USER_CHARGES

@<TRIPOS>ATOM
      1 C1         -0.0187    1.5258    0.0104 C.3       1 <0>        -0.1533
      2 C2          0.0021   -0.0041    0.0020 C.3       1 <0>        -0.1262
      3 C3          0.7182   -0.4975   -1.2568 C.3       1 <0>        -0.1211
      4 C4          0.7390   -2.0273   -1.2652 C.3       1 <0>        -0.1211
      5 C5          1.4551   -2.5207   -2.5240 C.3       1 <0>        -0.1203
      6 C6          1.4758   -4.0506   -2.5324 C.3       1 <0>        -0.1205
      7 C7          2.1920   -4.5440   -3.7912 C.3       1 <0>        -0.1199
      8 C8          2.2127   -6.0738   -3.7996 C.3       1 <0>        -0.1204
      9 C9          2.9289   -6.5673   -5.0584 C.3       1 <0>        -0.1192
     10 C10         2.9496   -8.0971   -5.0668 C.3       1 <0>        -0.1201
     11 C11         3.6658   -8.5905   -6.3257 C.3       1 <0>        -0.1183
     12 C12         3.6865  -10.1203   -6.3341 C.3       1 <0>        -0.1165
     13 C13         4.4026  -10.6138   -7.5929 C.3       1 <0>        -0.1151
     14 C14         4.4234  -12.1436   -7.6013 C.3       1 <0>        -0.1502
     15 C15         5.1395  -12.6370   -8.8601 C.3       1 <0>        -0.1025
     16 C16         5.1603  -14.1669   -8.8685 C.3       1 <0>        -1.0371
     17 O1          5.8514  -14.6402   -7.7108 O.3       1 <0>        -0.5074
     18 P1          3.4500  -14.7978   -8.8556 P.3       1 <0>         2.2850
     19 O2          3.4710  -16.3427   -8.8641 O.2       1 <0>        -1.0919
     20 O3          2.7269  -14.2996   -7.5844 O.3       1 <0>        -1.0929
     21 O4          2.6713  -14.2645  -10.1599 O.3       1 <0>        -0.8855
     22 P2          6.0136  -14.7548  -10.3684 P.3       1 <0>         2.2447
     23 O5          5.2663  -14.2430  -11.6200 O.2       1 <0>        -1.0883
     24 O6          7.4630  -14.2200  -10.3793 O.3       1 <0>        -1.1075
     25 O7          6.0354  -16.3646  -10.3772 O.3       1 <0>        -0.8743
     26 H1          1.0039    1.9031    0.0027 H         1 <0>         0.0528
     27 H2         -0.5459    1.8868   -0.8726 H         1 <0>         0.0529
     28 H3         -0.5289    1.8773    0.9072 H         1 <0>         0.0518
     29 H4          0.5293   -0.3651    0.8851 H         1 <0>         0.0600
     30 H5         -1.0205   -0.3814    0.0098 H         1 <0>         0.0602
     31 H6          0.1910   -0.1364   -2.1398 H         1 <0>         0.0603
     32 H7          1.7408   -0.1202   -1.2645 H         1 <0>         0.0601
     33 H8          1.2661   -2.3884   -0.3821 H         1 <0>         0.0602
     34 H9         -0.2836   -2.4046   -1.2575 H         1 <0>         0.0605
     35 H10         0.9279   -2.1597   -3.4071 H         1 <0>         0.0601
     36 H11         2.4777   -2.1435   -2.5317 H         1 <0>         0.0597
     37 H12         2.0030   -4.4117   -1.6494 H         1 <0>         0.0598
     38 H13         0.4533   -4.4279   -2.5247 H         1 <0>         0.0604
     39 H14         1.6648   -4.1829   -4.6743 H         1 <0>         0.0598
     40 H15         3.2146   -4.1667   -3.7990 H         1 <0>         0.0591
     41 H16         2.7399   -6.4349   -2.9166 H         1 <0>         0.0595
     42 H17         1.1901   -6.4511   -3.7919 H         1 <0>         0.0606
     43 H18         2.4017   -6.2062   -5.9415 H         1 <0>         0.0594
     44 H19         3.9515   -6.1900   -5.0662 H         1 <0>         0.0580
     45 H20         3.4768   -8.4582   -4.1838 H         1 <0>         0.0587
     46 H21         1.9270   -8.4744   -5.0591 H         1 <0>         0.0615
     47 H22         3.1386   -8.2294   -7.2087 H         1 <0>         0.0583
     48 H23         4.6884   -8.2132   -6.3334 H         1 <0>         0.0552
     49 H24         4.2137  -10.4814   -5.4510 H         1 <0>         0.0562
     50 H25         2.6639  -10.4976   -6.3263 H         1 <0>         0.0655
     51 H26         3.8755  -10.2527   -8.4759 H         1 <0>         0.0533
     52 H27         5.4252  -10.2365   -7.6006 H         1 <0>         0.0448
     53 H28         4.9506  -12.5047   -6.7182 H         1 <0>         0.0537
     54 H29         3.4008  -12.5209   -7.5935 H         1 <0>         0.1212
     55 H30         4.6123  -12.2759   -9.7431 H         1 <0>         0.0658
     56 H31         6.1621  -12.2597   -8.8678 H         1 <0>         0.0496
     57 H32         6.7696  -14.3427   -7.6518 H         1 <0>         0.3440
     58 H33         1.7531  -14.5620  -10.2188 H         1 <0>         0.4004
     59 H34         6.4751  -16.7477  -11.1486 H         1 <0>         0.3960
@<TRIPOS>BOND
     1    1    2 1
     2    1   26 1
     3    1   27 1
     4    1   28 1
     5    2    3 1
     6    2   29 1
     7    2   30 1
     8    3    4 1
     9    3   31 1
    10    3   32 1
    11    4    5 1
    12    4   33 1
    13    4   34 1
    14    5    6 1
    15    5   35 1
    16    5   36 1
    17    6    7 1
    18    6   37 1
    19    6   38 1
    20    7    8 1
    21    7   39 1
    22    7   40 1
    23    8    9 1
    24    8   41 1
    25    8   42 1
    26    9   10 1
    27    9   43 1
    28    9   44 1
    29   10   11 1
    30   10   45 1
    31   10   46 1
    32   11   12 1
    33   11   47 1
    34   11   48 1
    35   12   13 1
    36   12   49 1
    37   12   50 1
    38   13   14 1
    39   13   51 1
    40   13   52 1
    41   14   15 1
    42   14   53 1
    43   14   54 1
    44   15   16 1
    45   15   55 1
    46   15   56 1
    47   16   17 1
    48   16   18 1
    49   16   22 1
    50   17   57 1
    51   18   19 2
    52   18   20 1
    53   18   21 1
    54   21   58 1
    55   22   23 2
    56   22   24 1
    57   22   25 1
    58   25   59 1
@<TRIPOS>MOLECULE
CHEMBL198510
   30    29     0     0     0
SMALL
USER_CHARGES

@<TRIPOS>ATOM
      1 C1          0.2495    1.5118    0.1932 C.3       1 <0>        -0.1493
      2 C2          0.1865   -0.0156    0.1284 C.3       1 <0>        -0.1237
      3 C3          0.8912   -0.5017   -1.1397 C.3       1 <0>        -0.1153
      4 C4          0.8283   -2.0290   -1.2045 C.3       1 <0>        -0.1585
      5 C5          1.5330   -2.5152   -2.4725 C.3       1 <0>        -0.0899
      6 C6          1.5861   -4.0442   -2.4722 C.3       1 <0>        -1.1020
      7 N1          2.2095   -4.5122   -1.2270 N.4       1 <0>        -0.5639
      8 P1          2.5683   -4.6185   -3.8966 P.3       1 <0>         2.1293
      9 O1          1.8531   -4.2008   -5.2264 O.2       1 <0>        -1.1259
     10 O2          3.9933   -3.9697   -3.8439 O.3       1 <0>        -1.1543
     11 O3          2.7025   -6.1785   -3.8435 O.3       1 <0>        -1.1244
     12 P2         -0.1062   -4.7111   -2.5925 P.3       1 <0>         2.2811
     13 O4         -0.0526   -6.2552   -2.5921 O.2       1 <0>        -1.0747
     14 O5         -0.9386   -4.2244   -1.3853 O.3       1 <0>        -1.0998
     15 O6         -0.7894   -4.1982   -3.9571 O.3       1 <0>        -0.8712
     16 H1          1.2912    1.8320    0.2109 H         1 <0>         0.0491
     17 H2         -0.2454    1.9333   -0.6818 H         1 <0>         0.0528
     18 H3         -0.2526    1.8581    1.0965 H         1 <0>         0.0479
     19 H4          0.6813   -0.4371    1.0033 H         1 <0>         0.0554
     20 H5         -0.8552   -0.3358    0.1106 H         1 <0>         0.0666
     21 H6          0.3964   -0.0802   -2.0147 H         1 <0>         0.0632
     22 H7          1.9330   -0.1814   -1.1219 H         1 <0>         0.0532
     23 H8          1.3231   -2.4505   -0.3295 H         1 <0>         0.0371
     24 H9         -0.2135   -2.3493   -1.2223 H         1 <0>         0.1217
     25 H10         0.9831   -2.1709   -3.3485 H         1 <0>         0.0919
     26 H11         2.5470   -2.1164   -2.5002 H         1 <0>         0.0686
     27 H12         1.6659   -4.1944   -0.4386 H         1 <0>         0.3949
     28 H13         2.2445   -5.5206   -1.2267 H         1 <0>         0.4311
     29 H14        -1.6936   -4.5152   -4.0876 H         1 <0>         0.4004
     30 H15         3.1462   -4.1431   -1.1604 H         1 <0>         0.4087
@<TRIPOS>BOND
     1    1    2 1
     2    1   16 1
     3    1   17 1
     4    1   18 1
     5    2    3 1
     6    2   19 1
     7    2   20 1
     8    3    4 1
     9    3   21 1
    10    3   22 1
    11    4    5 1
    12    4   23 1
    13    4   24 1
    14    5    6 1
    15    5   25 1
    16    5   26 1
    17    6    7 1
    18    6    8 1
    19    6   12 1
    20    7   27 1
    21    7   28 1
    22    7   30 1
    23    8    9 2
    24    8   10 1
    25    8   11 1
    26   12   13 2
    27   12   14 1
    28   12   15 1
    29   15   29 1
@<TRIPOS>MOLECULE
CHEMBL198510__1
   29    28     0     0     0
SMALL
USER_CHARGES

@<TRIPOS>ATOM
      1 C1          0.0077    1.5107   -0.3078 C.3       1 <0>        -0.1456
      2 C2          0.0208   -0.0165   -0.2157 C.3       1 <0>        -0.1237
      3 C3         -1.4173   -0.5385   -0.1942 C.3       1 <0>        -0.1135
      4 C4         -1.4042   -2.0656   -0.1021 C.3       1 <0>        -0.1490
      5 C5         -2.8423   -2.5876   -0.0806 C.3       1 <0>        -0.0734
      6 C6         -2.8303   -4.1171   -0.1188 C.3       1 <0>        -1.0921
      7 N1         -2.0513   -4.5719   -1.2782 N.4       1 <0>        -0.5631
      8 P1         -2.0731   -4.7572    1.4110 P.3       1 <0>         2.1881
      9 O1         -0.5662   -4.3322    1.4653 O.2       1 <0>        -1.1799
     10 O2         -2.8266   -4.1692    2.6524 O.3       1 <0>        -1.1424
     11 O3         -2.1758   -6.3204    1.4301 O.3       1 <0>        -1.1491
     12 P2         -4.5400   -4.7349   -0.2552 P.3       1 <0>         2.1860
     13 O4         -5.3445   -4.3328    1.0276 O.2       1 <0>        -1.1398
     14 O5         -5.2228   -4.1075   -1.5179 O.3       1 <0>        -1.1894
     15 O6         -4.5219   -6.2955   -0.3925 O.3       1 <0>        -1.1507
     16 H1          1.0322    1.8825   -0.3231 H         1 <0>         0.0428
     17 H2         -0.5031    1.8152   -1.2213 H         1 <0>         0.0458
     18 H3         -0.5154    1.9222    0.5554 H         1 <0>         0.0520
     19 H4          0.5438   -0.4281   -1.0789 H         1 <0>         0.0518
     20 H5          0.5315   -0.3211    0.6978 H         1 <0>         0.0673
     21 H6         -1.9403   -0.1269    0.6690 H         1 <0>         0.0620
     22 H7         -1.9281   -0.2339   -1.1077 H         1 <0>         0.0452
     23 H8         -0.8812   -2.4772   -0.9653 H         1 <0>         0.0247
     24 H9         -0.8934   -2.3702    0.8114 H         1 <0>         0.1232
     25 H10        -3.3375   -2.2507    0.8301 H         1 <0>         0.0933
     26 H11        -3.3801   -2.2067   -0.9488 H         1 <0>         0.0407
     27 H12        -1.1050   -4.2299   -1.2027 H         1 <0>         0.3847
     28 H13        -2.0434   -5.5805   -1.3034 H         1 <0>         0.4219
     29 H14        -2.4704   -4.2176   -2.1249 H         1 <0>         0.3823
@<TRIPOS>BOND
     1    1    2 1
     2    1   16 1
     3    1   17 1
     4    1   18 1
     5    2    3 1
     6    2   19 1
     7    2   20 1
     8    3    4 1
     9    3   21 1
    10    3   22 1
    11    4    5 1
    12    4   23 1
    13    4   24 1
    14    5    6 1
    15    5   25 1
    16    5   26 1
    17    6    7 1
    18    6    8 1
    19    6   12 1
    20    7   27 1
    21    7   28 1
    22    7   29 1
    23    8    9 2
    24    8   10 1
    25    8   11 1
    26   12   13 2
    27   12   14 1
    28   12   15 1
@<TRIPOS>MOLECULE
CHEMBL54926
   25    25     0     0     0
SMALL
USER_CHARGES

@<TRIPOS>ATOM
      1 C1          0.8946    1.9210    0.1467 C.3       1 <0>        -0.1252
      2 C2          2.3715    1.4956    0.0950 C.3       1 <0>        -0.1525
      3 C3          1.8925    0.1973   -0.5757 C.3       1 <0>        -0.0396
      4 C4          0.5442    0.4237    0.1283 C.3       1 <0>        -0.1489
      5 N1          2.6041   -1.0015   -0.1127 N.4       1 <0>        -0.4235
      6 C5          2.1392   -2.1705   -0.8711 C.3       1 <0>        -1.1451
      7 P1          2.6552   -2.0096   -2.6122 P.3       1 <0>         2.1360
      8 O1          1.8967   -0.8085   -3.2728 O.2       1 <0>        -1.1401
      9 O2          4.1991   -1.7519   -2.6777 O.3       1 <0>        -1.1219
     10 O3          2.3131   -3.3303   -3.3824 O.3       1 <0>        -1.1260
     11 P2          2.8646   -3.6842   -0.1598 P.3       1 <0>         2.2711
     12 O4          4.4055   -3.6012   -0.2347 O.2       1 <0>        -1.0711
     13 O5          2.4273   -3.8205    1.3158 O.3       1 <0>        -1.1114
     14 O6          2.3550   -4.9654   -0.9911 O.3       1 <0>        -0.8692
     15 H1          0.6171    2.4230    1.0735 H         1 <0>         0.0765
     16 H2          0.5635    2.4579   -0.7422 H         1 <0>         0.0939
     17 H3          2.9839    2.1219   -0.5536 H         1 <0>         0.0943
     18 H4          2.8160    1.3408    1.0782 H         1 <0>         0.0878
     19 H5          1.8342    0.2629   -1.6622 H         1 <0>         0.2089
     20 H6          0.4891   -0.0240    1.1206 H         1 <0>         0.0862
     21 H7         -0.3186    0.1848   -0.4934 H         1 <0>         0.0874
     22 H8          3.5956   -0.8804   -0.2556 H         1 <0>         0.4262
     23 H9          1.0521   -2.2290   -0.8183 H         1 <0>         0.1191
     24 H10         2.7022   -5.8078   -0.6673 H         1 <0>         0.4007
     25 H11         2.4208   -1.1432    0.8694 H         1 <0>         0.3862
@<TRIPOS>BOND
     1    1    4 1
     2    1    2 1
     3    1   15 1
     4    1   16 1
     5    2    3 1
     6    2   17 1
     7    2   18 1
     8    3    4 1
     9    3    5 1
    10    3   19 1
    11    4   20 1
    12    4   21 1
    13    5    6 1
    14    5   22 1
    15    5   25 1
    16    6    7 1
    17    6   11 1
    18    6   23 1
    19    7    8 2
    20    7    9 1
    21    7   10 1
    22   11   12 2
    23   11   13 1
    24   11   14 1
    25   14   24 1
@<TRIPOS>MOLECULE
CHEMBL54926__1
   24    24     0     0     0
SMALL
USER_CHARGES

@<TRIPOS>ATOM
      1 C1          0.9381    1.9257    0.1863 C.3       1 <0>        -0.1243
      2 C2          2.4108    1.4915    0.0994 C.3       1 <0>        -0.1552
      3 C3          1.9084    0.1971   -0.5616 C.3       1 <0>        -0.0416
      4 C4          0.5784    0.4306    0.1741 C.3       1 <0>        -0.1475
      5 N1          2.6235   -1.0066   -0.1169 N.4       1 <0>        -0.4228
      6 C5          2.1392   -2.1705   -0.8711 C.3       1 <0>        -1.1295
      7 P1          2.6231   -2.0049   -2.6209 P.3       1 <0>         2.1895
      8 O1          1.8550   -0.8000   -3.2634 O.2       1 <0>        -1.1727
      9 O2          4.1661   -1.7501   -2.7142 O.3       1 <0>        -1.1487
     10 O3          2.2640   -3.3224   -3.3890 O.3       1 <0>        -1.1377
     11 P2          2.8710   -3.6902   -0.1795 P.3       1 <0>         2.1791
     12 O4          4.4243   -3.6606   -0.3815 O.2       1 <0>        -1.1453
     13 O5          2.5449   -3.7774    1.3504 O.3       1 <0>        -1.1916
     14 O6          2.2727   -4.9386   -0.9129 O.3       1 <0>        -1.1407
     15 H1          0.6854    2.4280    1.1200 H         1 <0>         0.0695
     16 H2          0.5895    2.4658   -0.6939 H         1 <0>         0.0891
     17 H3          3.0116    2.1151   -0.5626 H         1 <0>         0.0880
     18 H4          2.8773    1.3327    1.0717 H         1 <0>         0.0835
     19 H5          1.8251    0.2646   -1.6463 H         1 <0>         0.2041
     20 H6          0.5439   -0.0183    1.1668 H         1 <0>         0.0837
     21 H7         -0.3002    0.1977   -0.4275 H         1 <0>         0.0834
     22 H8          3.6126   -0.8891   -0.2782 H         1 <0>         0.4178
     23 H9          1.0530   -2.2245   -0.7981 H         1 <0>         0.0915
     24 H10         2.4582   -1.1515    0.8678 H         1 <0>         0.3783
@<TRIPOS>BOND
     1    1    4 1
     2    1    2 1
     3    1   15 1
     4    1   16 1
     5    2    3 1
     6    2   17 1
     7    2   18 1
     8    3    4 1
     9    3    5 1
    10    3   19 1
    11    4   20 1
    12    4   21 1
    13    5    6 1
    14    5   22 1
    15    5   24 1
    16    6    7 1
    17    6   11 1
    18    6   23 1
    19    7    8 2
    20    7    9 1
    21    7   10 1
    22   11   12 2
    23   11   13 1
    24   11   14 1
@<TRIPOS>MOLECULE
CHEMBL52137
   27    27     0     0     0
SMALL
USER_CHARGES

@<TRIPOS>ATOM
      1 C1          0.3212    1.0405    0.6989 C.3       1 <0>        -0.1268
      2 C2          1.7430    1.5962    0.5768 C.3       1 <0>        -0.1382
      3 C3          2.2988    1.2604   -0.8088 C.3       1 <0>        -0.0502
      4 N1          2.3239   -0.1960   -0.9900 N.4       1 <0>        -0.2984
      5 C4          0.9562   -0.7271   -0.9457 C.3       1 <0>        -0.0505
      6 C5          0.3487   -0.4677    0.4346 C.3       1 <0>        -0.1379
      7 C6          2.9299   -0.5159   -2.2894 C.3       1 <0>        -1.1280
      8 P1          4.6154    0.1752   -2.3603 P.3       1 <0>         2.1836
      9 O1          4.5382    1.7399   -2.3721 O.2       1 <0>        -1.1727
     10 O2          5.4271   -0.2982   -1.1068 O.3       1 <0>        -1.1539
     11 O3          5.3293   -0.3223   -3.6631 O.3       1 <0>        -1.1297
     12 P2          3.0060   -2.3256   -2.4954 P.3       1 <0>         2.1836
     13 O4          3.7170   -2.9631   -1.2535 O.2       1 <0>        -1.1538
     14 O5          1.5530   -2.8989   -2.6166 O.3       1 <0>        -1.1732
     15 O6          3.8133   -2.6700   -3.7931 O.3       1 <0>        -1.1297
     16 H1         -0.0583    1.2276    1.7034 H         1 <0>         0.0653
     17 H2         -0.3244    1.5269   -0.0323 H         1 <0>         0.0616
     18 H3          1.7235    2.6780    0.7087 H         1 <0>         0.0839
     19 H4          2.3763    1.1470    1.3417 H         1 <0>         0.0775
     20 H5          1.6649    1.7103   -1.5729 H         1 <0>         0.0866
     21 H6          3.3109    1.6548   -0.8991 H         1 <0>         0.1750
     22 H7          0.3509   -0.2348   -1.7069 H         1 <0>         0.0857
     23 H8          0.9772   -1.7999   -1.1372 H         1 <0>         0.1745
     24 H9          0.9532   -0.9598    1.1966 H         1 <0>         0.0776
     25 H10        -0.6673   -0.8611    0.4649 H         1 <0>         0.0836
     26 H11         2.3264   -0.0843   -3.0879 H         1 <0>         0.0879
     27 H12         2.8708   -0.6162   -0.2535 H         1 <0>         0.4162
@<TRIPOS>BOND
     1    1    6 1
     2    1    2 1
     3    1   16 1
     4    1   17 1
     5    2    3 1
     6    2   18 1
     7    2   19 1
     8    3    4 1
     9    3   20 1
    10    3   21 1
    11    4    5 1
    12    4    7 1
    13    4   27 1
    14    5    6 1
    15    5   22 1
    16    5   23 1
    17    6   24 1
    18    6   25 1
    19    7    8 1
    20    7   12 1
    21    7   26 1
    22    8    9 2
    23    8   10 1
    24    8   11 1
    25   12   13 2
    26   12   14 1
    27   12   15 1
@<TRIPOS>MOLECULE
CHEMBL52137__1
   28    28     0     0     0
SMALL
USER_CHARGES

@<TRIPOS>ATOM
      1 C1          0.3169    1.0358    0.6976 C.3       1 <0>        -0.1308
      2 C2          1.7383    1.5928    0.5774 C.3       1 <0>        -0.1395
      3 C3          2.2958    1.2586   -0.8079 C.3       1 <0>        -0.0451
      4 N1          2.3223   -0.1976   -0.9904 N.4       1 <0>        -0.3008
      5 C4          0.9550   -0.7298   -0.9479 C.3       1 <0>        -0.0510
      6 C5          0.3459   -0.4722    0.4320 C.3       1 <0>        -0.1383
      7 C6          2.9299   -0.5159   -2.2894 C.3       1 <0>        -1.1449
      8 P1          4.6144    0.1777   -2.3585 P.3       1 <0>         2.1311
      9 O1          4.5349    1.7423   -2.3697 O.2       1 <0>        -1.1394
     10 O2          5.4257   -0.2950   -1.1044 O.3       1 <0>        -1.1255
     11 O3          5.3303   -0.3182   -3.6608 O.3       1 <0>        -1.1222
     12 P2          3.0088   -2.3254   -2.4963 P.3       1 <0>         2.2796
     13 O4          3.7109   -2.9536   -1.2718 O.2       1 <0>        -1.0781
     14 O5          1.5769   -2.8929   -2.6163 O.3       1 <0>        -1.1018
     15 O6          3.8392   -2.6773   -3.8300 O.3       1 <0>        -0.8636
     16 H1         -0.0638    1.2217    1.7019 H         1 <0>         0.0743
     17 H2         -0.3284    1.5223   -0.0339 H         1 <0>         0.0663
     18 H3          1.7178    2.6745    0.7102 H         1 <0>         0.0936
     19 H4          2.3712    1.1434    1.3426 H         1 <0>         0.0819
     20 H5          1.6623    1.7086   -1.5723 H         1 <0>         0.0962
     21 H6          3.3077    1.6539   -0.8969 H         1 <0>         0.1794
     22 H7          0.3501   -0.2374   -1.7093 H         1 <0>         0.0976
     23 H8          0.9770   -1.8025   -1.1403 H         1 <0>         0.1675
     24 H9          0.9500   -0.9644    1.1942 H         1 <0>         0.0823
     25 H10        -0.6698   -0.8665    0.4609 H         1 <0>         0.0924
     26 H11         2.3265   -0.0848   -3.0882 H         1 <0>         0.1174
     27 H12         3.9215   -3.6250   -4.0035 H         1 <0>         0.3994
     28 H13         2.8688   -0.6180   -0.2537 H         1 <0>         0.4221
@<TRIPOS>BOND
     1    1    6 1
     2    1    2 1
     3    1   16 1
     4    1   17 1
     5    2    3 1
     6    2   18 1
     7    2   19 1
     8    3    4 1
     9    3   20 1
    10    3   21 1
    11    4    5 1
    12    4    7 1
    13    4   28 1
    14    5    6 1
    15    5   22 1
    16    5   23 1
    17    6   24 1
    18    6   25 1
    19    7    8 1
    20    7   12 1
    21    7   26 1
    22    8    9 2
    23    8   10 1
    24    8   11 1
    25   12   13 2
    26   12   14 1
    27   12   15 1
    28   15   27 1
@<TRIPOS>MOLECULE
CHEMBL56011
   30    29     0     0     0
SMALL
USER_CHARGES

@<TRIPOS>ATOM
      1 C1         -1.0034    1.8079    0.7369 C.3       1 <0>        -0.1491
      2 C2         -0.7500    0.3010    0.6603 C.3       1 <0>        -0.1154
      3 C3         -2.0719   -0.4262    0.4058 C.3       1 <0>        -0.1126
      4 C4         -2.9999   -0.2323    1.6067 C.3       1 <0>        -0.1686
      5 C5         -1.8024   -1.9189    0.2052 C.3       1 <0>        -0.0295
      6 N1         -3.0537   -2.5979   -0.1570 N.4       1 <0>        -0.4299
      7 C6         -2.7725   -4.0032   -0.4796 C.3       1 <0>        -1.1469
      8 P1         -2.2043   -4.8691    1.0206 P.3       1 <0>         2.1290
      9 O1         -0.8170   -4.2912    1.4633 O.2       1 <0>        -1.1453
     10 O2         -3.2477   -4.6610    2.1705 O.3       1 <0>        -1.1213
     11 O3         -2.0598   -6.3993    0.7172 O.3       1 <0>        -1.1264
     12 P2         -4.2896   -4.7990   -1.1027 P.3       1 <0>         2.2707
     13 O4         -5.3896   -4.7293   -0.0201 O.2       1 <0>        -1.0700
     14 O5         -4.7712   -4.0651   -2.3741 O.3       1 <0>        -1.1107
     15 O6         -3.9815   -6.3391   -1.4563 O.3       1 <0>        -0.8692
     16 H1         -0.0616    2.3260    0.9181 H         1 <0>         0.0536
     17 H2         -1.4324    2.1525   -0.2041 H         1 <0>         0.0507
     18 H3         -1.6967    2.0188    1.5511 H         1 <0>         0.0590
     19 H4         -0.0567    0.0901   -0.1540 H         1 <0>         0.0653
     20 H5         -0.3210   -0.0436    1.6012 H         1 <0>         0.0778
     21 H6         -2.5444   -0.0189   -0.4880 H         1 <0>         0.0756
     22 H7         -3.9417   -0.7504    1.4254 H         1 <0>         0.0587
     23 H8         -2.5274   -0.6396    2.5005 H         1 <0>         0.0779
     24 H9         -3.1919    0.8311    1.7496 H         1 <0>         0.0677
     25 H10        -1.0724   -2.0522   -0.5931 H         1 <0>         0.1031
     26 H11        -1.4121   -2.3450    1.1294 H         1 <0>         0.1725
     27 H12        -3.6974   -2.5532    0.6187 H         1 <0>         0.4258
     28 H13        -1.9964   -4.0524   -1.2434 H         1 <0>         0.1189
     29 H14        -4.7458   -6.8256   -1.7944 H         1 <0>         0.4011
     30 H15        -3.4625   -2.1438   -0.9599 H         1 <0>         0.3874
@<TRIPOS>BOND
     1    1    2 1
     2    1   16 1
     3    1   17 1
     4    1   18 1
     5    2    3 1
     6    2   19 1
     7    2   20 1
     8    3    4 1
     9    3    5 1
    10    3   21 1
    11    4   22 1
    12    4   23 1
    13    4   24 1
    14    5    6 1
    15    5   25 1
    16    5   26 1
    17    6    7 1
    18    6   27 1
    19    6   30 1
    20    7    8 1
    21    7   12 1
    22    7   28 1
    23    8    9 2
    24    8   10 1
    25    8   11 1
    26   12   13 2
    27   12   14 1
    28   12   15 1
    29   15   29 1
@<TRIPOS>MOLECULE
CHEMBL56011__1
   29    28     0     0     0
SMALL
USER_CHARGES

@<TRIPOS>ATOM
      1 C1          0.2604    1.8763   -0.7528 C.3       1 <0>        -0.1469
      2 C2          0.2799    0.3662   -0.5076 C.3       1 <0>        -0.1141
      3 C3          0.9581   -0.3333   -1.6872 C.3       1 <0>        -0.1176
      4 C4          0.1147   -0.1390   -2.9488 C.3       1 <0>        -0.1634
      5 C5          1.0897   -1.8278   -1.3868 C.3       1 <0>        -0.0355
      6 N1          1.8464   -2.4791   -2.4643 N.4       1 <0>        -0.4291
      7 C6          1.8680   -3.9306   -2.2394 C.3       1 <0>        -1.1307
      8 P1          2.6978   -4.7504   -3.6404 P.3       1 <0>         2.1775
      9 O1          1.9928   -4.3396   -4.9778 O.2       1 <0>        -1.1909
     10 O2          4.2010   -4.3116   -3.6863 O.3       1 <0>        -1.1424
     11 O3          2.6126   -6.3044   -3.4610 O.3       1 <0>        -1.1415
     12 P2          2.7740   -4.2935   -0.6997 P.3       1 <0>         2.1848
     13 O4          4.2041   -3.6581   -0.7731 O.2       1 <0>        -1.1466
     14 O5          1.9961   -3.6896    0.5187 O.3       1 <0>        -1.1770
     15 O6          2.9004   -5.8449   -0.5215 O.3       1 <0>        -1.1401
     16 H1          1.2825    2.2414   -0.8529 H         1 <0>         0.0545
     17 H2         -0.2925    2.0887   -1.6679 H         1 <0>         0.0516
     18 H3         -0.2228    2.3747    0.0876 H         1 <0>         0.0494
     19 H4          0.8328    0.1539    0.4075 H         1 <0>         0.0781
     20 H5         -0.7423    0.0011   -0.4075 H         1 <0>         0.0632
     21 H6          1.9485    0.0945   -1.8428 H         1 <0>         0.0848
     22 H7          0.0210    0.9256   -3.1628 H         1 <0>         0.0636
     23 H8          0.5979   -0.6374   -3.7892 H         1 <0>         0.0588
     24 H9         -0.8757   -0.5669   -2.7932 H         1 <0>         0.0589
     25 H10         1.6142   -1.9635   -0.4410 H         1 <0>         0.1711
     26 H11         0.0973   -2.2735   -1.3190 H         1 <0>         0.0940
     27 H12         1.4063   -2.2826   -3.3507 H         1 <0>         0.3780
     28 H13         0.8461   -4.3005   -2.1554 H         1 <0>         0.0904
     29 H14         2.7916   -2.1259   -2.4725 H         1 <0>         0.4170
@<TRIPOS>BOND
     1    1    2 1
     2    1   16 1
     3    1   17 1
     4    1   18 1
     5    2    3 1
     6    2   19 1
     7    2   20 1
     8    3    4 1
     9    3    5 1
    10    3   21 1
    11    4   22 1
    12    4   23 1
    13    4   24 1
    14    5    6 1
    15    5   25 1
    16    5   26 1
    17    6    7 1
    18    6   27 1
    19    6   29 1
    20    7    8 1
    21    7   12 1
    22    7   28 1
    23    8    9 2
    24    8   10 1
    25    8   11 1
    26   12   13 2
    27   12   14 1
    28   12   15 1
@<TRIPOS>MOLECULE
CHEMBL56011__2
   30    29     0     0     0
SMALL
USER_CHARGES

@<TRIPOS>ATOM
      1 C1         -0.9908    1.8911    0.7920 C.3       1 <0>        -0.1493
      2 C2         -0.7105    0.3909    0.6835 C.3       1 <0>        -0.1152
      3 C3         -2.0247   -0.3582    0.4544 C.3       1 <0>        -0.1170
      4 C4         -2.6109    0.0431   -0.9007 C.3       1 <0>        -0.1659
      5 C5         -1.7621   -1.8654    0.4703 C.3       1 <0>        -0.0275
      6 N1         -3.0384   -2.5859    0.3703 N.4       1 <0>        -0.4304
      7 C6         -2.7792   -4.0271    0.2534 C.3       1 <0>        -1.1463
      8 P1         -2.0346   -4.6381    1.8012 P.3       1 <0>         2.1294
      9 O1         -0.6129   -4.0053    1.9821 O.2       1 <0>        -1.1453
     10 O2         -2.9433   -4.2358    3.0123 O.3       1 <0>        -1.1218
     11 O3         -1.9077   -6.1984    1.7392 O.3       1 <0>        -1.1262
     12 P2         -4.3479   -4.9037   -0.0537 P.3       1 <0>         2.2705
     13 O4         -5.3188   -4.6486    1.1207 O.2       1 <0>        -1.0700
     14 O5         -4.9790   -4.3858   -1.3654 O.3       1 <0>        -1.1107
     15 O6         -4.0639   -6.4832   -0.1818 O.3       1 <0>        -0.8692
     16 H1         -0.0545    2.4248    0.9552 H         1 <0>         0.0540
     17 H2         -1.4529    2.2420   -0.1307 H         1 <0>         0.0534
     18 H3         -1.6646    2.0753    1.6287 H         1 <0>         0.0562
     19 H4         -0.0367    0.2067   -0.1532 H         1 <0>         0.0658
     20 H5         -0.2483    0.0400    1.6062 H         1 <0>         0.0796
     21 H6         -2.7305   -0.1040    1.2452 H         1 <0>         0.0894
     22 H7         -2.7980    1.1168   -0.9120 H         1 <0>         0.0710
     23 H8         -1.9052   -0.2112   -1.6915 H         1 <0>         0.0620
     24 H9         -3.5472   -0.4906   -1.0639 H         1 <0>         0.0557
     25 H10        -1.1270   -2.1325   -0.3743 H         1 <0>         0.1030
     26 H11        -1.2632   -2.1375    1.4005 H         1 <0>         0.1720
     27 H12        -3.5900   -2.4093    1.1965 H         1 <0>         0.4260
     28 H13        -2.0942   -4.2071   -0.5751 H         1 <0>         0.1187
     29 H14        -4.8558   -7.0132   -0.3461 H         1 <0>         0.4010
     30 H15        -3.5414   -2.2675   -0.4443 H         1 <0>         0.3870
@<TRIPOS>BOND
     1    1    2 1
     2    1   16 1
     3    1   17 1
     4    1   18 1
     5    2    3 1
     6    2   19 1
     7    2   20 1
     8    3    4 1
     9    3    5 1
    10    3   21 1
    11    4   22 1
    12    4   23 1
    13    4   24 1
    14    5    6 1
    15    5   25 1
    16    5   26 1
    17    6    7 1
    18    6   27 1
    19    6   30 1
    20    7    8 1
    21    7   12 1
    22    7   28 1
    23    8    9 2
    24    8   10 1
    25    8   11 1
    26   12   13 2
    27   12   14 1
    28   12   15 1
    29   15   29 1
